version 3
run General-244-20250917-22:37:09-66358
attr configname General
attr datetime 20250917-22:37:09
attr datetimef 20250917-223709
attr experiment General
attr inifile omnetpp.ini
attr iterationvars ""
attr iterationvarsd ""
attr iterationvarsf ""
attr measurement ""
attr network RGG
attr processid 66358
attr repetition 244
attr replication #244
attr resultdir results
attr runnumber 244
attr seedset 244
config network RGG
config seed-set 244
config num-rngs 1
config sim-time-limit 10s
config repeat 500
config **.node[*].xCor "uniform(0.0, 1.0, 0)"
config **.node[*].yCor "uniform(0.0, 1.0, 0)"
config *.numWalkers 1
config *.numNodes 100
config *.enableDuplication true
config *.rc 0.25

par RGG.node[0].port$o[0].channel typename "\"ned.IdealChannel\""
par RGG.node[4].port$o[0].channel typename "\"ned.IdealChannel\""
par RGG.node[0].port$o[1].channel typename "\"ned.IdealChannel\""
par RGG.node[16].port$o[0].channel typename "\"ned.IdealChannel\""
par RGG.node[0].port$o[2].channel typename "\"ned.IdealChannel\""
par RGG.node[37].port$o[0].channel typename "\"ned.IdealChannel\""
par RGG.node[0].port$o[3].channel typename "\"ned.IdealChannel\""
par RGG.node[38].port$o[0].channel typename "\"ned.IdealChannel\""
par RGG.node[0].port$o[4].channel typename "\"ned.IdealChannel\""
par RGG.node[51].port$o[0].channel typename "\"ned.IdealChannel\""
par RGG.node[0].port$o[5].channel typename "\"ned.IdealChannel\""
par RGG.node[54].port$o[0].channel typename "\"ned.IdealChannel\""
par RGG.node[0].port$o[6].channel typename "\"ned.IdealChannel\""
par RGG.node[57].port$o[0].channel typename "\"ned.IdealChannel\""
par RGG.node[0].port$o[7].channel typename "\"ned.IdealChannel\""
par RGG.node[58].port$o[0].channel typename "\"ned.IdealChannel\""
par RGG.node[0].port$o[8].channel typename "\"ned.IdealChannel\""
par RGG.node[64].port$o[0].channel typename "\"ned.IdealChannel\""
par RGG.node[0].port$o[9].channel typename "\"ned.IdealChannel\""
par RGG.node[68].port$o[0].channel typename "\"ned.IdealChannel\""
par RGG.node[0].port$o[10].channel typename "\"ned.IdealChannel\""
par RGG.node[69].port$o[0].channel typename "\"ned.IdealChannel\""
par RGG.node[0].port$o[11].channel typename "\"ned.IdealChannel\""
par RGG.node[71].port$o[0].channel typename "\"ned.IdealChannel\""
par RGG.node[0].port$o[12].channel typename "\"ned.IdealChannel\""
par RGG.node[83].port$o[0].channel typename "\"ned.IdealChannel\""
par RGG.node[0].port$o[13].channel typename "\"ned.IdealChannel\""
par RGG.node[84].port$o[0].channel typename "\"ned.IdealChannel\""
par RGG.node[0].port$o[14].channel typename "\"ned.IdealChannel\""
par RGG.node[86].port$o[0].channel typename "\"ned.IdealChannel\""
par RGG.node[0].port$o[15].channel typename "\"ned.IdealChannel\""
par RGG.node[89].port$o[0].channel typename "\"ned.IdealChannel\""
par RGG.node[0].port$o[16].channel typename "\"ned.IdealChannel\""
par RGG.node[97].port$o[0].channel typename "\"ned.IdealChannel\""
par RGG.node[1].port$o[0].channel typename "\"ned.IdealChannel\""
par RGG.node[2].port$o[0].channel typename "\"ned.IdealChannel\""
par RGG.node[1].port$o[1].channel typename "\"ned.IdealChannel\""
par RGG.node[5].port$o[0].channel typename "\"ned.IdealChannel\""
par RGG.node[1].port$o[2].channel typename "\"ned.IdealChannel\""
par RGG.node[11].port$o[0].channel typename "\"ned.IdealChannel\""
par RGG.node[1].port$o[3].channel typename "\"ned.IdealChannel\""
par RGG.node[14].port$o[0].channel typename "\"ned.IdealChannel\""
par RGG.node[1].port$o[4].channel typename "\"ned.IdealChannel\""
par RGG.node[19].port$o[0].channel typename "\"ned.IdealChannel\""
par RGG.node[1].port$o[5].channel typename "\"ned.IdealChannel\""
par RGG.node[22].port$o[0].channel typename "\"ned.IdealChannel\""
par RGG.node[1].port$o[6].channel typename "\"ned.IdealChannel\""
par RGG.node[34].port$o[0].channel typename "\"ned.IdealChannel\""
par RGG.node[1].port$o[7].channel typename "\"ned.IdealChannel\""
par RGG.node[43].port$o[0].channel typename "\"ned.IdealChannel\""
par RGG.node[1].port$o[8].channel typename "\"ned.IdealChannel\""
par RGG.node[45].port$o[0].channel typename "\"ned.IdealChannel\""
par RGG.node[1].port$o[9].channel typename "\"ned.IdealChannel\""
par RGG.node[46].port$o[0].channel typename "\"ned.IdealChannel\""
par RGG.node[1].port$o[10].channel typename "\"ned.IdealChannel\""
par RGG.node[49].port$o[0].channel typename "\"ned.IdealChannel\""
par RGG.node[1].port$o[11].channel typename "\"ned.IdealChannel\""
par RGG.node[52].port$o[0].channel typename "\"ned.IdealChannel\""
par RGG.node[1].port$o[12].channel typename "\"ned.IdealChannel\""
par RGG.node[65].port$o[0].channel typename "\"ned.IdealChannel\""
par RGG.node[1].port$o[13].channel typename "\"ned.IdealChannel\""
par RGG.node[74].port$o[0].channel typename "\"ned.IdealChannel\""
par RGG.node[1].port$o[14].channel typename "\"ned.IdealChannel\""
par RGG.node[87].port$o[0].channel typename "\"ned.IdealChannel\""
par RGG.node[1].port$o[15].channel typename "\"ned.IdealChannel\""
par RGG.node[94].port$o[0].channel typename "\"ned.IdealChannel\""
par RGG.node[2].port$o[1].channel typename "\"ned.IdealChannel\""
par RGG.node[5].port$o[1].channel typename "\"ned.IdealChannel\""
par RGG.node[2].port$o[2].channel typename "\"ned.IdealChannel\""
par RGG.node[11].port$o[1].channel typename "\"ned.IdealChannel\""
par RGG.node[2].port$o[3].channel typename "\"ned.IdealChannel\""
par RGG.node[12].port$o[0].channel typename "\"ned.IdealChannel\""
par RGG.node[2].port$o[4].channel typename "\"ned.IdealChannel\""
par RGG.node[14].port$o[1].channel typename "\"ned.IdealChannel\""
par RGG.node[2].port$o[5].channel typename "\"ned.IdealChannel\""
par RGG.node[45].port$o[1].channel typename "\"ned.IdealChannel\""
par RGG.node[2].port$o[6].channel typename "\"ned.IdealChannel\""
par RGG.node[46].port$o[1].channel typename "\"ned.IdealChannel\""
par RGG.node[2].port$o[7].channel typename "\"ned.IdealChannel\""
par RGG.node[49].port$o[1].channel typename "\"ned.IdealChannel\""
par RGG.node[2].port$o[8].channel typename "\"ned.IdealChannel\""
par RGG.node[65].port$o[1].channel typename "\"ned.IdealChannel\""
par RGG.node[2].port$o[9].channel typename "\"ned.IdealChannel\""
par RGG.node[66].port$o[0].channel typename "\"ned.IdealChannel\""
par RGG.node[2].port$o[10].channel typename "\"ned.IdealChannel\""
par RGG.node[74].port$o[1].channel typename "\"ned.IdealChannel\""
par RGG.node[2].port$o[11].channel typename "\"ned.IdealChannel\""
par RGG.node[87].port$o[1].channel typename "\"ned.IdealChannel\""
par RGG.node[2].port$o[12].channel typename "\"ned.IdealChannel\""
par RGG.node[92].port$o[0].channel typename "\"ned.IdealChannel\""
par RGG.node[2].port$o[13].channel typename "\"ned.IdealChannel\""
par RGG.node[94].port$o[1].channel typename "\"ned.IdealChannel\""
par RGG.node[3].port$o[0].channel typename "\"ned.IdealChannel\""
par RGG.node[9].port$o[0].channel typename "\"ned.IdealChannel\""
par RGG.node[3].port$o[1].channel typename "\"ned.IdealChannel\""
par RGG.node[24].port$o[0].channel typename "\"ned.IdealChannel\""
par RGG.node[3].port$o[2].channel typename "\"ned.IdealChannel\""
par RGG.node[33].port$o[0].channel typename "\"ned.IdealChannel\""
par RGG.node[3].port$o[3].channel typename "\"ned.IdealChannel\""
par RGG.node[40].port$o[0].channel typename "\"ned.IdealChannel\""
par RGG.node[3].port$o[4].channel typename "\"ned.IdealChannel\""
par RGG.node[51].port$o[1].channel typename "\"ned.IdealChannel\""
par RGG.node[3].port$o[5].channel typename "\"ned.IdealChannel\""
par RGG.node[54].port$o[1].channel typename "\"ned.IdealChannel\""
par RGG.node[3].port$o[6].channel typename "\"ned.IdealChannel\""
par RGG.node[55].port$o[0].channel typename "\"ned.IdealChannel\""
par RGG.node[3].port$o[7].channel typename "\"ned.IdealChannel\""
par RGG.node[76].port$o[0].channel typename "\"ned.IdealChannel\""
par RGG.node[3].port$o[8].channel typename "\"ned.IdealChannel\""
par RGG.node[86].port$o[1].channel typename "\"ned.IdealChannel\""
par RGG.node[3].port$o[9].channel typename "\"ned.IdealChannel\""
par RGG.node[91].port$o[0].channel typename "\"ned.IdealChannel\""
par RGG.node[3].port$o[10].channel typename "\"ned.IdealChannel\""
par RGG.node[95].port$o[0].channel typename "\"ned.IdealChannel\""
par RGG.node[3].port$o[11].channel typename "\"ned.IdealChannel\""
par RGG.node[96].port$o[0].channel typename "\"ned.IdealChannel\""
par RGG.node[3].port$o[12].channel typename "\"ned.IdealChannel\""
par RGG.node[97].port$o[1].channel typename "\"ned.IdealChannel\""
par RGG.node[3].port$o[13].channel typename "\"ned.IdealChannel\""
par RGG.node[99].port$o[0].channel typename "\"ned.IdealChannel\""
par RGG.node[4].port$o[1].channel typename "\"ned.IdealChannel\""
par RGG.node[16].port$o[1].channel typename "\"ned.IdealChannel\""
par RGG.node[4].port$o[2].channel typename "\"ned.IdealChannel\""
par RGG.node[21].port$o[0].channel typename "\"ned.IdealChannel\""
par RGG.node[4].port$o[3].channel typename "\"ned.IdealChannel\""
par RGG.node[31].port$o[0].channel typename "\"ned.IdealChannel\""
par RGG.node[4].port$o[4].channel typename "\"ned.IdealChannel\""
par RGG.node[39].port$o[0].channel typename "\"ned.IdealChannel\""
par RGG.node[4].port$o[5].channel typename "\"ned.IdealChannel\""
par RGG.node[43].port$o[1].channel typename "\"ned.IdealChannel\""
par RGG.node[4].port$o[6].channel typename "\"ned.IdealChannel\""
par RGG.node[48].port$o[0].channel typename "\"ned.IdealChannel\""
par RGG.node[4].port$o[7].channel typename "\"ned.IdealChannel\""
par RGG.node[51].port$o[2].channel typename "\"ned.IdealChannel\""
par RGG.node[4].port$o[8].channel typename "\"ned.IdealChannel\""
par RGG.node[54].port$o[2].channel typename "\"ned.IdealChannel\""
par RGG.node[4].port$o[9].channel typename "\"ned.IdealChannel\""
par RGG.node[58].port$o[1].channel typename "\"ned.IdealChannel\""
par RGG.node[4].port$o[10].channel typename "\"ned.IdealChannel\""
par RGG.node[61].port$o[0].channel typename "\"ned.IdealChannel\""
par RGG.node[4].port$o[11].channel typename "\"ned.IdealChannel\""
par RGG.node[68].port$o[1].channel typename "\"ned.IdealChannel\""
par RGG.node[4].port$o[12].channel typename "\"ned.IdealChannel\""
par RGG.node[69].port$o[1].channel typename "\"ned.IdealChannel\""
par RGG.node[4].port$o[13].channel typename "\"ned.IdealChannel\""
par RGG.node[70].port$o[0].channel typename "\"ned.IdealChannel\""
par RGG.node[4].port$o[14].channel typename "\"ned.IdealChannel\""
par RGG.node[75].port$o[0].channel typename "\"ned.IdealChannel\""
par RGG.node[4].port$o[15].channel typename "\"ned.IdealChannel\""
par RGG.node[79].port$o[0].channel typename "\"ned.IdealChannel\""
par RGG.node[4].port$o[16].channel typename "\"ned.IdealChannel\""
par RGG.node[84].port$o[1].channel typename "\"ned.IdealChannel\""
par RGG.node[5].port$o[2].channel typename "\"ned.IdealChannel\""
par RGG.node[11].port$o[2].channel typename "\"ned.IdealChannel\""
par RGG.node[5].port$o[3].channel typename "\"ned.IdealChannel\""
par RGG.node[12].port$o[1].channel typename "\"ned.IdealChannel\""
par RGG.node[5].port$o[4].channel typename "\"ned.IdealChannel\""
par RGG.node[14].port$o[2].channel typename "\"ned.IdealChannel\""
par RGG.node[5].port$o[5].channel typename "\"ned.IdealChannel\""
par RGG.node[19].port$o[1].channel typename "\"ned.IdealChannel\""
par RGG.node[5].port$o[6].channel typename "\"ned.IdealChannel\""
par RGG.node[22].port$o[1].channel typename "\"ned.IdealChannel\""
par RGG.node[5].port$o[7].channel typename "\"ned.IdealChannel\""
par RGG.node[45].port$o[2].channel typename "\"ned.IdealChannel\""
par RGG.node[5].port$o[8].channel typename "\"ned.IdealChannel\""
par RGG.node[46].port$o[2].channel typename "\"ned.IdealChannel\""
par RGG.node[5].port$o[9].channel typename "\"ned.IdealChannel\""
par RGG.node[49].port$o[2].channel typename "\"ned.IdealChannel\""
par RGG.node[5].port$o[10].channel typename "\"ned.IdealChannel\""
par RGG.node[52].port$o[1].channel typename "\"ned.IdealChannel\""
par RGG.node[5].port$o[11].channel typename "\"ned.IdealChannel\""
par RGG.node[65].port$o[2].channel typename "\"ned.IdealChannel\""
par RGG.node[5].port$o[12].channel typename "\"ned.IdealChannel\""
par RGG.node[74].port$o[2].channel typename "\"ned.IdealChannel\""
par RGG.node[5].port$o[13].channel typename "\"ned.IdealChannel\""
par RGG.node[87].port$o[2].channel typename "\"ned.IdealChannel\""
par RGG.node[5].port$o[14].channel typename "\"ned.IdealChannel\""
par RGG.node[88].port$o[0].channel typename "\"ned.IdealChannel\""
par RGG.node[5].port$o[15].channel typename "\"ned.IdealChannel\""
par RGG.node[94].port$o[2].channel typename "\"ned.IdealChannel\""
par RGG.node[6].port$o[0].channel typename "\"ned.IdealChannel\""
par RGG.node[15].port$o[0].channel typename "\"ned.IdealChannel\""
par RGG.node[6].port$o[1].channel typename "\"ned.IdealChannel\""
par RGG.node[18].port$o[0].channel typename "\"ned.IdealChannel\""
par RGG.node[6].port$o[2].channel typename "\"ned.IdealChannel\""
par RGG.node[20].port$o[0].channel typename "\"ned.IdealChannel\""
par RGG.node[6].port$o[3].channel typename "\"ned.IdealChannel\""
par RGG.node[28].port$o[0].channel typename "\"ned.IdealChannel\""
par RGG.node[6].port$o[4].channel typename "\"ned.IdealChannel\""
par RGG.node[30].port$o[0].channel typename "\"ned.IdealChannel\""
par RGG.node[6].port$o[5].channel typename "\"ned.IdealChannel\""
par RGG.node[44].port$o[0].channel typename "\"ned.IdealChannel\""
par RGG.node[6].port$o[6].channel typename "\"ned.IdealChannel\""
par RGG.node[77].port$o[0].channel typename "\"ned.IdealChannel\""
par RGG.node[6].port$o[7].channel typename "\"ned.IdealChannel\""
par RGG.node[78].port$o[0].channel typename "\"ned.IdealChannel\""
par RGG.node[6].port$o[8].channel typename "\"ned.IdealChannel\""
par RGG.node[85].port$o[0].channel typename "\"ned.IdealChannel\""
par RGG.node[6].port$o[9].channel typename "\"ned.IdealChannel\""
par RGG.node[90].port$o[0].channel typename "\"ned.IdealChannel\""
par RGG.node[7].port$o[0].channel typename "\"ned.IdealChannel\""
par RGG.node[10].port$o[0].channel typename "\"ned.IdealChannel\""
par RGG.node[7].port$o[1].channel typename "\"ned.IdealChannel\""
par RGG.node[12].port$o[2].channel typename "\"ned.IdealChannel\""
par RGG.node[7].port$o[2].channel typename "\"ned.IdealChannel\""
par RGG.node[17].port$o[0].channel typename "\"ned.IdealChannel\""
par RGG.node[7].port$o[3].channel typename "\"ned.IdealChannel\""
par RGG.node[23].port$o[0].channel typename "\"ned.IdealChannel\""
par RGG.node[7].port$o[4].channel typename "\"ned.IdealChannel\""
par RGG.node[25].port$o[0].channel typename "\"ned.IdealChannel\""
par RGG.node[7].port$o[5].channel typename "\"ned.IdealChannel\""
par RGG.node[27].port$o[0].channel typename "\"ned.IdealChannel\""
par RGG.node[7].port$o[6].channel typename "\"ned.IdealChannel\""
par RGG.node[29].port$o[0].channel typename "\"ned.IdealChannel\""
par RGG.node[7].port$o[7].channel typename "\"ned.IdealChannel\""
par RGG.node[60].port$o[0].channel typename "\"ned.IdealChannel\""
par RGG.node[7].port$o[8].channel typename "\"ned.IdealChannel\""
par RGG.node[63].port$o[0].channel typename "\"ned.IdealChannel\""
par RGG.node[7].port$o[9].channel typename "\"ned.IdealChannel\""
par RGG.node[73].port$o[0].channel typename "\"ned.IdealChannel\""
par RGG.node[7].port$o[10].channel typename "\"ned.IdealChannel\""
par RGG.node[93].port$o[0].channel typename "\"ned.IdealChannel\""
par RGG.node[7].port$o[11].channel typename "\"ned.IdealChannel\""
par RGG.node[98].port$o[0].channel typename "\"ned.IdealChannel\""
par RGG.node[8].port$o[0].channel typename "\"ned.IdealChannel\""
par RGG.node[10].port$o[1].channel typename "\"ned.IdealChannel\""
par RGG.node[8].port$o[1].channel typename "\"ned.IdealChannel\""
par RGG.node[15].port$o[1].channel typename "\"ned.IdealChannel\""
par RGG.node[8].port$o[2].channel typename "\"ned.IdealChannel\""
par RGG.node[17].port$o[1].channel typename "\"ned.IdealChannel\""
par RGG.node[8].port$o[3].channel typename "\"ned.IdealChannel\""
par RGG.node[18].port$o[1].channel typename "\"ned.IdealChannel\""
par RGG.node[8].port$o[4].channel typename "\"ned.IdealChannel\""
par RGG.node[25].port$o[1].channel typename "\"ned.IdealChannel\""
par RGG.node[8].port$o[5].channel typename "\"ned.IdealChannel\""
par RGG.node[36].port$o[0].channel typename "\"ned.IdealChannel\""
par RGG.node[8].port$o[6].channel typename "\"ned.IdealChannel\""
par RGG.node[41].port$o[0].channel typename "\"ned.IdealChannel\""
par RGG.node[8].port$o[7].channel typename "\"ned.IdealChannel\""
par RGG.node[42].port$o[0].channel typename "\"ned.IdealChannel\""
par RGG.node[8].port$o[8].channel typename "\"ned.IdealChannel\""
par RGG.node[56].port$o[0].channel typename "\"ned.IdealChannel\""
par RGG.node[8].port$o[9].channel typename "\"ned.IdealChannel\""
par RGG.node[67].port$o[0].channel typename "\"ned.IdealChannel\""
par RGG.node[8].port$o[10].channel typename "\"ned.IdealChannel\""
par RGG.node[71].port$o[1].channel typename "\"ned.IdealChannel\""
par RGG.node[8].port$o[11].channel typename "\"ned.IdealChannel\""
par RGG.node[82].port$o[0].channel typename "\"ned.IdealChannel\""
par RGG.node[8].port$o[12].channel typename "\"ned.IdealChannel\""
par RGG.node[83].port$o[1].channel typename "\"ned.IdealChannel\""
par RGG.node[9].port$o[1].channel typename "\"ned.IdealChannel\""
par RGG.node[24].port$o[1].channel typename "\"ned.IdealChannel\""
par RGG.node[9].port$o[2].channel typename "\"ned.IdealChannel\""
par RGG.node[33].port$o[1].channel typename "\"ned.IdealChannel\""
par RGG.node[9].port$o[3].channel typename "\"ned.IdealChannel\""
par RGG.node[40].port$o[1].channel typename "\"ned.IdealChannel\""
par RGG.node[9].port$o[4].channel typename "\"ned.IdealChannel\""
par RGG.node[42].port$o[1].channel typename "\"ned.IdealChannel\""
par RGG.node[9].port$o[5].channel typename "\"ned.IdealChannel\""
par RGG.node[47].port$o[0].channel typename "\"ned.IdealChannel\""
par RGG.node[9].port$o[6].channel typename "\"ned.IdealChannel\""
par RGG.node[55].port$o[1].channel typename "\"ned.IdealChannel\""
par RGG.node[9].port$o[7].channel typename "\"ned.IdealChannel\""
par RGG.node[56].port$o[1].channel typename "\"ned.IdealChannel\""
par RGG.node[9].port$o[8].channel typename "\"ned.IdealChannel\""
par RGG.node[71].port$o[2].channel typename "\"ned.IdealChannel\""
par RGG.node[9].port$o[9].channel typename "\"ned.IdealChannel\""
par RGG.node[82].port$o[1].channel typename "\"ned.IdealChannel\""
par RGG.node[9].port$o[10].channel typename "\"ned.IdealChannel\""
par RGG.node[86].port$o[2].channel typename "\"ned.IdealChannel\""
par RGG.node[9].port$o[11].channel typename "\"ned.IdealChannel\""
par RGG.node[91].port$o[1].channel typename "\"ned.IdealChannel\""
par RGG.node[9].port$o[12].channel typename "\"ned.IdealChannel\""
par RGG.node[97].port$o[2].channel typename "\"ned.IdealChannel\""
par RGG.node[10].port$o[2].channel typename "\"ned.IdealChannel\""
par RGG.node[17].port$o[2].channel typename "\"ned.IdealChannel\""
par RGG.node[10].port$o[3].channel typename "\"ned.IdealChannel\""
par RGG.node[23].port$o[1].channel typename "\"ned.IdealChannel\""
par RGG.node[10].port$o[4].channel typename "\"ned.IdealChannel\""
par RGG.node[25].port$o[2].channel typename "\"ned.IdealChannel\""
par RGG.node[10].port$o[5].channel typename "\"ned.IdealChannel\""
par RGG.node[27].port$o[1].channel typename "\"ned.IdealChannel\""
par RGG.node[10].port$o[6].channel typename "\"ned.IdealChannel\""
par RGG.node[29].port$o[1].channel typename "\"ned.IdealChannel\""
par RGG.node[10].port$o[7].channel typename "\"ned.IdealChannel\""
par RGG.node[36].port$o[1].channel typename "\"ned.IdealChannel\""
par RGG.node[10].port$o[8].channel typename "\"ned.IdealChannel\""
par RGG.node[41].port$o[1].channel typename "\"ned.IdealChannel\""
par RGG.node[10].port$o[9].channel typename "\"ned.IdealChannel\""
par RGG.node[53].port$o[0].channel typename "\"ned.IdealChannel\""
par RGG.node[10].port$o[10].channel typename "\"ned.IdealChannel\""
par RGG.node[60].port$o[1].channel typename "\"ned.IdealChannel\""
par RGG.node[10].port$o[11].channel typename "\"ned.IdealChannel\""
par RGG.node[62].port$o[0].channel typename "\"ned.IdealChannel\""
par RGG.node[10].port$o[12].channel typename "\"ned.IdealChannel\""
par RGG.node[63].port$o[1].channel typename "\"ned.IdealChannel\""
par RGG.node[10].port$o[13].channel typename "\"ned.IdealChannel\""
par RGG.node[67].port$o[1].channel typename "\"ned.IdealChannel\""
par RGG.node[10].port$o[14].channel typename "\"ned.IdealChannel\""
par RGG.node[81].port$o[0].channel typename "\"ned.IdealChannel\""
par RGG.node[10].port$o[15].channel typename "\"ned.IdealChannel\""
par RGG.node[93].port$o[1].channel typename "\"ned.IdealChannel\""
par RGG.node[10].port$o[16].channel typename "\"ned.IdealChannel\""
par RGG.node[98].port$o[1].channel typename "\"ned.IdealChannel\""
par RGG.node[11].port$o[3].channel typename "\"ned.IdealChannel\""
par RGG.node[14].port$o[3].channel typename "\"ned.IdealChannel\""
par RGG.node[11].port$o[4].channel typename "\"ned.IdealChannel\""
par RGG.node[19].port$o[2].channel typename "\"ned.IdealChannel\""
par RGG.node[11].port$o[5].channel typename "\"ned.IdealChannel\""
par RGG.node[34].port$o[1].channel typename "\"ned.IdealChannel\""
par RGG.node[11].port$o[6].channel typename "\"ned.IdealChannel\""
par RGG.node[45].port$o[3].channel typename "\"ned.IdealChannel\""
par RGG.node[11].port$o[7].channel typename "\"ned.IdealChannel\""
par RGG.node[46].port$o[3].channel typename "\"ned.IdealChannel\""
par RGG.node[11].port$o[8].channel typename "\"ned.IdealChannel\""
par RGG.node[49].port$o[3].channel typename "\"ned.IdealChannel\""
par RGG.node[11].port$o[9].channel typename "\"ned.IdealChannel\""
par RGG.node[52].port$o[2].channel typename "\"ned.IdealChannel\""
par RGG.node[11].port$o[10].channel typename "\"ned.IdealChannel\""
par RGG.node[74].port$o[3].channel typename "\"ned.IdealChannel\""
par RGG.node[11].port$o[11].channel typename "\"ned.IdealChannel\""
par RGG.node[87].port$o[3].channel typename "\"ned.IdealChannel\""
par RGG.node[11].port$o[12].channel typename "\"ned.IdealChannel\""
par RGG.node[94].port$o[3].channel typename "\"ned.IdealChannel\""
par RGG.node[12].port$o[3].channel typename "\"ned.IdealChannel\""
par RGG.node[14].port$o[4].channel typename "\"ned.IdealChannel\""
par RGG.node[12].port$o[4].channel typename "\"ned.IdealChannel\""
par RGG.node[49].port$o[4].channel typename "\"ned.IdealChannel\""
par RGG.node[12].port$o[5].channel typename "\"ned.IdealChannel\""
par RGG.node[60].port$o[2].channel typename "\"ned.IdealChannel\""
par RGG.node[12].port$o[6].channel typename "\"ned.IdealChannel\""
par RGG.node[65].port$o[3].channel typename "\"ned.IdealChannel\""
par RGG.node[12].port$o[7].channel typename "\"ned.IdealChannel\""
par RGG.node[66].port$o[1].channel typename "\"ned.IdealChannel\""
par RGG.node[12].port$o[8].channel typename "\"ned.IdealChannel\""
par RGG.node[73].port$o[1].channel typename "\"ned.IdealChannel\""
par RGG.node[12].port$o[9].channel typename "\"ned.IdealChannel\""
par RGG.node[88].port$o[1].channel typename "\"ned.IdealChannel\""
par RGG.node[12].port$o[10].channel typename "\"ned.IdealChannel\""
par RGG.node[89].port$o[1].channel typename "\"ned.IdealChannel\""
par RGG.node[12].port$o[11].channel typename "\"ned.IdealChannel\""
par RGG.node[92].port$o[1].channel typename "\"ned.IdealChannel\""
par RGG.node[13].port$o[0].channel typename "\"ned.IdealChannel\""
par RGG.node[16].port$o[2].channel typename "\"ned.IdealChannel\""
par RGG.node[13].port$o[1].channel typename "\"ned.IdealChannel\""
par RGG.node[21].port$o[1].channel typename "\"ned.IdealChannel\""
par RGG.node[13].port$o[2].channel typename "\"ned.IdealChannel\""
par RGG.node[31].port$o[1].channel typename "\"ned.IdealChannel\""
par RGG.node[13].port$o[3].channel typename "\"ned.IdealChannel\""
par RGG.node[39].port$o[1].channel typename "\"ned.IdealChannel\""
par RGG.node[13].port$o[4].channel typename "\"ned.IdealChannel\""
par RGG.node[48].port$o[1].channel typename "\"ned.IdealChannel\""
par RGG.node[13].port$o[5].channel typename "\"ned.IdealChannel\""
par RGG.node[50].port$o[0].channel typename "\"ned.IdealChannel\""
par RGG.node[13].port$o[6].channel typename "\"ned.IdealChannel\""
par RGG.node[51].port$o[3].channel typename "\"ned.IdealChannel\""
par RGG.node[13].port$o[7].channel typename "\"ned.IdealChannel\""
par RGG.node[54].port$o[3].channel typename "\"ned.IdealChannel\""
par RGG.node[13].port$o[8].channel typename "\"ned.IdealChannel\""
par RGG.node[61].port$o[1].channel typename "\"ned.IdealChannel\""
par RGG.node[13].port$o[9].channel typename "\"ned.IdealChannel\""
par RGG.node[70].port$o[1].channel typename "\"ned.IdealChannel\""
par RGG.node[13].port$o[10].channel typename "\"ned.IdealChannel\""
par RGG.node[75].port$o[1].channel typename "\"ned.IdealChannel\""
par RGG.node[13].port$o[11].channel typename "\"ned.IdealChannel\""
par RGG.node[76].port$o[1].channel typename "\"ned.IdealChannel\""
par RGG.node[13].port$o[12].channel typename "\"ned.IdealChannel\""
par RGG.node[79].port$o[1].channel typename "\"ned.IdealChannel\""
par RGG.node[13].port$o[13].channel typename "\"ned.IdealChannel\""
par RGG.node[95].port$o[1].channel typename "\"ned.IdealChannel\""
par RGG.node[13].port$o[14].channel typename "\"ned.IdealChannel\""
par RGG.node[96].port$o[1].channel typename "\"ned.IdealChannel\""
par RGG.node[13].port$o[15].channel typename "\"ned.IdealChannel\""
par RGG.node[97].port$o[3].channel typename "\"ned.IdealChannel\""
par RGG.node[13].port$o[16].channel typename "\"ned.IdealChannel\""
par RGG.node[99].port$o[1].channel typename "\"ned.IdealChannel\""
par RGG.node[14].port$o[5].channel typename "\"ned.IdealChannel\""
par RGG.node[45].port$o[4].channel typename "\"ned.IdealChannel\""
par RGG.node[14].port$o[6].channel typename "\"ned.IdealChannel\""
par RGG.node[46].port$o[4].channel typename "\"ned.IdealChannel\""
par RGG.node[14].port$o[7].channel typename "\"ned.IdealChannel\""
par RGG.node[49].port$o[5].channel typename "\"ned.IdealChannel\""
par RGG.node[14].port$o[8].channel typename "\"ned.IdealChannel\""
par RGG.node[65].port$o[4].channel typename "\"ned.IdealChannel\""
par RGG.node[14].port$o[9].channel typename "\"ned.IdealChannel\""
par RGG.node[74].port$o[4].channel typename "\"ned.IdealChannel\""
par RGG.node[14].port$o[10].channel typename "\"ned.IdealChannel\""
par RGG.node[87].port$o[4].channel typename "\"ned.IdealChannel\""
par RGG.node[14].port$o[11].channel typename "\"ned.IdealChannel\""
par RGG.node[92].port$o[2].channel typename "\"ned.IdealChannel\""
par RGG.node[14].port$o[12].channel typename "\"ned.IdealChannel\""
par RGG.node[94].port$o[4].channel typename "\"ned.IdealChannel\""
par RGG.node[15].port$o[2].channel typename "\"ned.IdealChannel\""
par RGG.node[18].port$o[2].channel typename "\"ned.IdealChannel\""
par RGG.node[15].port$o[3].channel typename "\"ned.IdealChannel\""
par RGG.node[25].port$o[3].channel typename "\"ned.IdealChannel\""
par RGG.node[15].port$o[4].channel typename "\"ned.IdealChannel\""
par RGG.node[30].port$o[1].channel typename "\"ned.IdealChannel\""
par RGG.node[15].port$o[5].channel typename "\"ned.IdealChannel\""
par RGG.node[36].port$o[2].channel typename "\"ned.IdealChannel\""
par RGG.node[15].port$o[6].channel typename "\"ned.IdealChannel\""
par RGG.node[44].port$o[1].channel typename "\"ned.IdealChannel\""
par RGG.node[15].port$o[7].channel typename "\"ned.IdealChannel\""
par RGG.node[53].port$o[1].channel typename "\"ned.IdealChannel\""
par RGG.node[15].port$o[8].channel typename "\"ned.IdealChannel\""
par RGG.node[56].port$o[2].channel typename "\"ned.IdealChannel\""
par RGG.node[15].port$o[9].channel typename "\"ned.IdealChannel\""
par RGG.node[67].port$o[2].channel typename "\"ned.IdealChannel\""
par RGG.node[15].port$o[10].channel typename "\"ned.IdealChannel\""
par RGG.node[77].port$o[1].channel typename "\"ned.IdealChannel\""
par RGG.node[15].port$o[11].channel typename "\"ned.IdealChannel\""
par RGG.node[78].port$o[1].channel typename "\"ned.IdealChannel\""
par RGG.node[15].port$o[12].channel typename "\"ned.IdealChannel\""
par RGG.node[82].port$o[2].channel typename "\"ned.IdealChannel\""
par RGG.node[15].port$o[13].channel typename "\"ned.IdealChannel\""
par RGG.node[85].port$o[1].channel typename "\"ned.IdealChannel\""
par RGG.node[15].port$o[14].channel typename "\"ned.IdealChannel\""
par RGG.node[90].port$o[1].channel typename "\"ned.IdealChannel\""
par RGG.node[16].port$o[3].channel typename "\"ned.IdealChannel\""
par RGG.node[21].port$o[2].channel typename "\"ned.IdealChannel\""
par RGG.node[16].port$o[4].channel typename "\"ned.IdealChannel\""
par RGG.node[31].port$o[2].channel typename "\"ned.IdealChannel\""
par RGG.node[16].port$o[5].channel typename "\"ned.IdealChannel\""
par RGG.node[39].port$o[2].channel typename "\"ned.IdealChannel\""
par RGG.node[16].port$o[6].channel typename "\"ned.IdealChannel\""
par RGG.node[48].port$o[2].channel typename "\"ned.IdealChannel\""
par RGG.node[16].port$o[7].channel typename "\"ned.IdealChannel\""
par RGG.node[50].port$o[1].channel typename "\"ned.IdealChannel\""
par RGG.node[16].port$o[8].channel typename "\"ned.IdealChannel\""
par RGG.node[51].port$o[4].channel typename "\"ned.IdealChannel\""
par RGG.node[16].port$o[9].channel typename "\"ned.IdealChannel\""
par RGG.node[54].port$o[4].channel typename "\"ned.IdealChannel\""
par RGG.node[16].port$o[10].channel typename "\"ned.IdealChannel\""
par RGG.node[57].port$o[1].channel typename "\"ned.IdealChannel\""
par RGG.node[16].port$o[11].channel typename "\"ned.IdealChannel\""
par RGG.node[58].port$o[2].channel typename "\"ned.IdealChannel\""
par RGG.node[16].port$o[12].channel typename "\"ned.IdealChannel\""
par RGG.node[61].port$o[2].channel typename "\"ned.IdealChannel\""
par RGG.node[16].port$o[13].channel typename "\"ned.IdealChannel\""
par RGG.node[68].port$o[2].channel typename "\"ned.IdealChannel\""
par RGG.node[16].port$o[14].channel typename "\"ned.IdealChannel\""
par RGG.node[70].port$o[2].channel typename "\"ned.IdealChannel\""
par RGG.node[16].port$o[15].channel typename "\"ned.IdealChannel\""
par RGG.node[75].port$o[2].channel typename "\"ned.IdealChannel\""
par RGG.node[16].port$o[16].channel typename "\"ned.IdealChannel\""
par RGG.node[76].port$o[2].channel typename "\"ned.IdealChannel\""
par RGG.node[16].port$o[17].channel typename "\"ned.IdealChannel\""
par RGG.node[79].port$o[2].channel typename "\"ned.IdealChannel\""
par RGG.node[16].port$o[18].channel typename "\"ned.IdealChannel\""
par RGG.node[84].port$o[2].channel typename "\"ned.IdealChannel\""
par RGG.node[16].port$o[19].channel typename "\"ned.IdealChannel\""
par RGG.node[97].port$o[4].channel typename "\"ned.IdealChannel\""
par RGG.node[16].port$o[20].channel typename "\"ned.IdealChannel\""
par RGG.node[99].port$o[2].channel typename "\"ned.IdealChannel\""
par RGG.node[17].port$o[3].channel typename "\"ned.IdealChannel\""
par RGG.node[23].port$o[2].channel typename "\"ned.IdealChannel\""
par RGG.node[17].port$o[4].channel typename "\"ned.IdealChannel\""
par RGG.node[25].port$o[4].channel typename "\"ned.IdealChannel\""
par RGG.node[17].port$o[5].channel typename "\"ned.IdealChannel\""
par RGG.node[27].port$o[2].channel typename "\"ned.IdealChannel\""
par RGG.node[17].port$o[6].channel typename "\"ned.IdealChannel\""
par RGG.node[29].port$o[2].channel typename "\"ned.IdealChannel\""
par RGG.node[17].port$o[7].channel typename "\"ned.IdealChannel\""
par RGG.node[36].port$o[3].channel typename "\"ned.IdealChannel\""
par RGG.node[17].port$o[8].channel typename "\"ned.IdealChannel\""
par RGG.node[41].port$o[2].channel typename "\"ned.IdealChannel\""
par RGG.node[17].port$o[9].channel typename "\"ned.IdealChannel\""
par RGG.node[53].port$o[2].channel typename "\"ned.IdealChannel\""
par RGG.node[17].port$o[10].channel typename "\"ned.IdealChannel\""
par RGG.node[60].port$o[3].channel typename "\"ned.IdealChannel\""
par RGG.node[17].port$o[11].channel typename "\"ned.IdealChannel\""
par RGG.node[63].port$o[2].channel typename "\"ned.IdealChannel\""
par RGG.node[17].port$o[12].channel typename "\"ned.IdealChannel\""
par RGG.node[67].port$o[3].channel typename "\"ned.IdealChannel\""
par RGG.node[17].port$o[13].channel typename "\"ned.IdealChannel\""
par RGG.node[73].port$o[2].channel typename "\"ned.IdealChannel\""
par RGG.node[17].port$o[14].channel typename "\"ned.IdealChannel\""
par RGG.node[81].port$o[1].channel typename "\"ned.IdealChannel\""
par RGG.node[17].port$o[15].channel typename "\"ned.IdealChannel\""
par RGG.node[83].port$o[2].channel typename "\"ned.IdealChannel\""
par RGG.node[17].port$o[16].channel typename "\"ned.IdealChannel\""
par RGG.node[93].port$o[2].channel typename "\"ned.IdealChannel\""
par RGG.node[17].port$o[17].channel typename "\"ned.IdealChannel\""
par RGG.node[98].port$o[2].channel typename "\"ned.IdealChannel\""
par RGG.node[18].port$o[3].channel typename "\"ned.IdealChannel\""
par RGG.node[30].port$o[2].channel typename "\"ned.IdealChannel\""
par RGG.node[18].port$o[4].channel typename "\"ned.IdealChannel\""
par RGG.node[36].port$o[4].channel typename "\"ned.IdealChannel\""
par RGG.node[18].port$o[5].channel typename "\"ned.IdealChannel\""
par RGG.node[53].port$o[3].channel typename "\"ned.IdealChannel\""
par RGG.node[18].port$o[6].channel typename "\"ned.IdealChannel\""
par RGG.node[67].port$o[4].channel typename "\"ned.IdealChannel\""
par RGG.node[18].port$o[7].channel typename "\"ned.IdealChannel\""
par RGG.node[77].port$o[2].channel typename "\"ned.IdealChannel\""
par RGG.node[18].port$o[8].channel typename "\"ned.IdealChannel\""
par RGG.node[78].port$o[2].channel typename "\"ned.IdealChannel\""
par RGG.node[18].port$o[9].channel typename "\"ned.IdealChannel\""
par RGG.node[81].port$o[2].channel typename "\"ned.IdealChannel\""
par RGG.node[18].port$o[10].channel typename "\"ned.IdealChannel\""
par RGG.node[82].port$o[3].channel typename "\"ned.IdealChannel\""
par RGG.node[18].port$o[11].channel typename "\"ned.IdealChannel\""
par RGG.node[90].port$o[2].channel typename "\"ned.IdealChannel\""
par RGG.node[19].port$o[3].channel typename "\"ned.IdealChannel\""
par RGG.node[22].port$o[2].channel typename "\"ned.IdealChannel\""
par RGG.node[19].port$o[4].channel typename "\"ned.IdealChannel\""
par RGG.node[34].port$o[2].channel typename "\"ned.IdealChannel\""
par RGG.node[19].port$o[5].channel typename "\"ned.IdealChannel\""
par RGG.node[43].port$o[2].channel typename "\"ned.IdealChannel\""
par RGG.node[19].port$o[6].channel typename "\"ned.IdealChannel\""
par RGG.node[45].port$o[5].channel typename "\"ned.IdealChannel\""
par RGG.node[19].port$o[7].channel typename "\"ned.IdealChannel\""
par RGG.node[49].port$o[6].channel typename "\"ned.IdealChannel\""
par RGG.node[19].port$o[8].channel typename "\"ned.IdealChannel\""
par RGG.node[52].port$o[3].channel typename "\"ned.IdealChannel\""
par RGG.node[19].port$o[9].channel typename "\"ned.IdealChannel\""
par RGG.node[87].port$o[5].channel typename "\"ned.IdealChannel\""
par RGG.node[19].port$o[10].channel typename "\"ned.IdealChannel\""
par RGG.node[94].port$o[5].channel typename "\"ned.IdealChannel\""
par RGG.node[20].port$o[1].channel typename "\"ned.IdealChannel\""
par RGG.node[28].port$o[1].channel typename "\"ned.IdealChannel\""
par RGG.node[20].port$o[2].channel typename "\"ned.IdealChannel\""
par RGG.node[30].port$o[3].channel typename "\"ned.IdealChannel\""
par RGG.node[20].port$o[3].channel typename "\"ned.IdealChannel\""
par RGG.node[44].port$o[2].channel typename "\"ned.IdealChannel\""
par RGG.node[20].port$o[4].channel typename "\"ned.IdealChannel\""
par RGG.node[77].port$o[3].channel typename "\"ned.IdealChannel\""
par RGG.node[20].port$o[5].channel typename "\"ned.IdealChannel\""
par RGG.node[85].port$o[2].channel typename "\"ned.IdealChannel\""
par RGG.node[20].port$o[6].channel typename "\"ned.IdealChannel\""
par RGG.node[90].port$o[3].channel typename "\"ned.IdealChannel\""
par RGG.node[21].port$o[3].channel typename "\"ned.IdealChannel\""
par RGG.node[31].port$o[3].channel typename "\"ned.IdealChannel\""
par RGG.node[21].port$o[4].channel typename "\"ned.IdealChannel\""
par RGG.node[39].port$o[3].channel typename "\"ned.IdealChannel\""
par RGG.node[21].port$o[5].channel typename "\"ned.IdealChannel\""
par RGG.node[48].port$o[3].channel typename "\"ned.IdealChannel\""
par RGG.node[21].port$o[6].channel typename "\"ned.IdealChannel\""
par RGG.node[50].port$o[2].channel typename "\"ned.IdealChannel\""
par RGG.node[21].port$o[7].channel typename "\"ned.IdealChannel\""
par RGG.node[51].port$o[5].channel typename "\"ned.IdealChannel\""
par RGG.node[21].port$o[8].channel typename "\"ned.IdealChannel\""
par RGG.node[54].port$o[5].channel typename "\"ned.IdealChannel\""
par RGG.node[21].port$o[9].channel typename "\"ned.IdealChannel\""
par RGG.node[61].port$o[3].channel typename "\"ned.IdealChannel\""
par RGG.node[21].port$o[10].channel typename "\"ned.IdealChannel\""
par RGG.node[68].port$o[3].channel typename "\"ned.IdealChannel\""
par RGG.node[21].port$o[11].channel typename "\"ned.IdealChannel\""
par RGG.node[70].port$o[3].channel typename "\"ned.IdealChannel\""
par RGG.node[21].port$o[12].channel typename "\"ned.IdealChannel\""
par RGG.node[75].port$o[3].channel typename "\"ned.IdealChannel\""
par RGG.node[21].port$o[13].channel typename "\"ned.IdealChannel\""
par RGG.node[79].port$o[3].channel typename "\"ned.IdealChannel\""
par RGG.node[21].port$o[14].channel typename "\"ned.IdealChannel\""
par RGG.node[84].port$o[3].channel typename "\"ned.IdealChannel\""
par RGG.node[21].port$o[15].channel typename "\"ned.IdealChannel\""
par RGG.node[99].port$o[3].channel typename "\"ned.IdealChannel\""
par RGG.node[22].port$o[3].channel typename "\"ned.IdealChannel\""
par RGG.node[34].port$o[3].channel typename "\"ned.IdealChannel\""
par RGG.node[22].port$o[4].channel typename "\"ned.IdealChannel\""
par RGG.node[37].port$o[1].channel typename "\"ned.IdealChannel\""
par RGG.node[22].port$o[5].channel typename "\"ned.IdealChannel\""
par RGG.node[38].port$o[1].channel typename "\"ned.IdealChannel\""
par RGG.node[22].port$o[6].channel typename "\"ned.IdealChannel\""
par RGG.node[43].port$o[3].channel typename "\"ned.IdealChannel\""
par RGG.node[22].port$o[7].channel typename "\"ned.IdealChannel\""
par RGG.node[49].port$o[7].channel typename "\"ned.IdealChannel\""
par RGG.node[22].port$o[8].channel typename "\"ned.IdealChannel\""
par RGG.node[52].port$o[4].channel typename "\"ned.IdealChannel\""
par RGG.node[22].port$o[9].channel typename "\"ned.IdealChannel\""
par RGG.node[65].port$o[5].channel typename "\"ned.IdealChannel\""
par RGG.node[22].port$o[10].channel typename "\"ned.IdealChannel\""
par RGG.node[68].port$o[4].channel typename "\"ned.IdealChannel\""
par RGG.node[22].port$o[11].channel typename "\"ned.IdealChannel\""
par RGG.node[69].port$o[2].channel typename "\"ned.IdealChannel\""
par RGG.node[22].port$o[12].channel typename "\"ned.IdealChannel\""
par RGG.node[84].port$o[4].channel typename "\"ned.IdealChannel\""
par RGG.node[22].port$o[13].channel typename "\"ned.IdealChannel\""
par RGG.node[87].port$o[6].channel typename "\"ned.IdealChannel\""
par RGG.node[22].port$o[14].channel typename "\"ned.IdealChannel\""
par RGG.node[88].port$o[2].channel typename "\"ned.IdealChannel\""
par RGG.node[22].port$o[15].channel typename "\"ned.IdealChannel\""
par RGG.node[89].port$o[2].channel typename "\"ned.IdealChannel\""
par RGG.node[23].port$o[3].channel typename "\"ned.IdealChannel\""
par RGG.node[26].port$o[0].channel typename "\"ned.IdealChannel\""
par RGG.node[23].port$o[4].channel typename "\"ned.IdealChannel\""
par RGG.node[27].port$o[3].channel typename "\"ned.IdealChannel\""
par RGG.node[23].port$o[5].channel typename "\"ned.IdealChannel\""
par RGG.node[29].port$o[3].channel typename "\"ned.IdealChannel\""
par RGG.node[23].port$o[6].channel typename "\"ned.IdealChannel\""
par RGG.node[53].port$o[4].channel typename "\"ned.IdealChannel\""
par RGG.node[23].port$o[7].channel typename "\"ned.IdealChannel\""
par RGG.node[60].port$o[4].channel typename "\"ned.IdealChannel\""
par RGG.node[23].port$o[8].channel typename "\"ned.IdealChannel\""
par RGG.node[62].port$o[1].channel typename "\"ned.IdealChannel\""
par RGG.node[23].port$o[9].channel typename "\"ned.IdealChannel\""
par RGG.node[63].port$o[3].channel typename "\"ned.IdealChannel\""
par RGG.node[23].port$o[10].channel typename "\"ned.IdealChannel\""
par RGG.node[72].port$o[0].channel typename "\"ned.IdealChannel\""
par RGG.node[23].port$o[11].channel typename "\"ned.IdealChannel\""
par RGG.node[81].port$o[3].channel typename "\"ned.IdealChannel\""
par RGG.node[23].port$o[12].channel typename "\"ned.IdealChannel\""
par RGG.node[93].port$o[3].channel typename "\"ned.IdealChannel\""
par RGG.node[23].port$o[13].channel typename "\"ned.IdealChannel\""
par RGG.node[98].port$o[3].channel typename "\"ned.IdealChannel\""
par RGG.node[24].port$o[2].channel typename "\"ned.IdealChannel\""
par RGG.node[33].port$o[2].channel typename "\"ned.IdealChannel\""
par RGG.node[24].port$o[3].channel typename "\"ned.IdealChannel\""
par RGG.node[40].port$o[2].channel typename "\"ned.IdealChannel\""
par RGG.node[24].port$o[4].channel typename "\"ned.IdealChannel\""
par RGG.node[42].port$o[2].channel typename "\"ned.IdealChannel\""
par RGG.node[24].port$o[5].channel typename "\"ned.IdealChannel\""
par RGG.node[47].port$o[1].channel typename "\"ned.IdealChannel\""
par RGG.node[24].port$o[6].channel typename "\"ned.IdealChannel\""
par RGG.node[55].port$o[2].channel typename "\"ned.IdealChannel\""
par RGG.node[24].port$o[7].channel typename "\"ned.IdealChannel\""
par RGG.node[56].port$o[3].channel typename "\"ned.IdealChannel\""
par RGG.node[24].port$o[8].channel typename "\"ned.IdealChannel\""
par RGG.node[67].port$o[5].channel typename "\"ned.IdealChannel\""
par RGG.node[24].port$o[9].channel typename "\"ned.IdealChannel\""
par RGG.node[71].port$o[3].channel typename "\"ned.IdealChannel\""
par RGG.node[24].port$o[10].channel typename "\"ned.IdealChannel\""
par RGG.node[82].port$o[4].channel typename "\"ned.IdealChannel\""
par RGG.node[24].port$o[11].channel typename "\"ned.IdealChannel\""
par RGG.node[91].port$o[2].channel typename "\"ned.IdealChannel\""
par RGG.node[25].port$o[5].channel typename "\"ned.IdealChannel\""
par RGG.node[36].port$o[5].channel typename "\"ned.IdealChannel\""
par RGG.node[25].port$o[6].channel typename "\"ned.IdealChannel\""
par RGG.node[41].port$o[3].channel typename "\"ned.IdealChannel\""
par RGG.node[25].port$o[7].channel typename "\"ned.IdealChannel\""
par RGG.node[42].port$o[3].channel typename "\"ned.IdealChannel\""
par RGG.node[25].port$o[8].channel typename "\"ned.IdealChannel\""
par RGG.node[53].port$o[5].channel typename "\"ned.IdealChannel\""
par RGG.node[25].port$o[9].channel typename "\"ned.IdealChannel\""
par RGG.node[60].port$o[5].channel typename "\"ned.IdealChannel\""
par RGG.node[25].port$o[10].channel typename "\"ned.IdealChannel\""
par RGG.node[67].port$o[6].channel typename "\"ned.IdealChannel\""
par RGG.node[25].port$o[11].channel typename "\"ned.IdealChannel\""
par RGG.node[81].port$o[4].channel typename "\"ned.IdealChannel\""
par RGG.node[25].port$o[12].channel typename "\"ned.IdealChannel\""
par RGG.node[82].port$o[5].channel typename "\"ned.IdealChannel\""
par RGG.node[25].port$o[13].channel typename "\"ned.IdealChannel\""
par RGG.node[83].port$o[3].channel typename "\"ned.IdealChannel\""
par RGG.node[25].port$o[14].channel typename "\"ned.IdealChannel\""
par RGG.node[93].port$o[4].channel typename "\"ned.IdealChannel\""
par RGG.node[26].port$o[1].channel typename "\"ned.IdealChannel\""
par RGG.node[27].port$o[4].channel typename "\"ned.IdealChannel\""
par RGG.node[26].port$o[2].channel typename "\"ned.IdealChannel\""
par RGG.node[29].port$o[4].channel typename "\"ned.IdealChannel\""
par RGG.node[26].port$o[3].channel typename "\"ned.IdealChannel\""
par RGG.node[35].port$o[0].channel typename "\"ned.IdealChannel\""
par RGG.node[26].port$o[4].channel typename "\"ned.IdealChannel\""
par RGG.node[53].port$o[6].channel typename "\"ned.IdealChannel\""
par RGG.node[26].port$o[5].channel typename "\"ned.IdealChannel\""
par RGG.node[62].port$o[2].channel typename "\"ned.IdealChannel\""
par RGG.node[26].port$o[6].channel typename "\"ned.IdealChannel\""
par RGG.node[63].port$o[4].channel typename "\"ned.IdealChannel\""
par RGG.node[26].port$o[7].channel typename "\"ned.IdealChannel\""
par RGG.node[72].port$o[1].channel typename "\"ned.IdealChannel\""
par RGG.node[26].port$o[8].channel typename "\"ned.IdealChannel\""
par RGG.node[81].port$o[5].channel typename "\"ned.IdealChannel\""
par RGG.node[26].port$o[9].channel typename "\"ned.IdealChannel\""
par RGG.node[93].port$o[5].channel typename "\"ned.IdealChannel\""
par RGG.node[26].port$o[10].channel typename "\"ned.IdealChannel\""
par RGG.node[98].port$o[4].channel typename "\"ned.IdealChannel\""
par RGG.node[27].port$o[5].channel typename "\"ned.IdealChannel\""
par RGG.node[29].port$o[5].channel typename "\"ned.IdealChannel\""
par RGG.node[27].port$o[6].channel typename "\"ned.IdealChannel\""
par RGG.node[32].port$o[0].channel typename "\"ned.IdealChannel\""
par RGG.node[27].port$o[7].channel typename "\"ned.IdealChannel\""
par RGG.node[35].port$o[1].channel typename "\"ned.IdealChannel\""
par RGG.node[27].port$o[8].channel typename "\"ned.IdealChannel\""
par RGG.node[53].port$o[7].channel typename "\"ned.IdealChannel\""
par RGG.node[27].port$o[9].channel typename "\"ned.IdealChannel\""
par RGG.node[59].port$o[0].channel typename "\"ned.IdealChannel\""
par RGG.node[27].port$o[10].channel typename "\"ned.IdealChannel\""
par RGG.node[60].port$o[6].channel typename "\"ned.IdealChannel\""
par RGG.node[27].port$o[11].channel typename "\"ned.IdealChannel\""
par RGG.node[62].port$o[3].channel typename "\"ned.IdealChannel\""
par RGG.node[27].port$o[12].channel typename "\"ned.IdealChannel\""
par RGG.node[63].port$o[5].channel typename "\"ned.IdealChannel\""
par RGG.node[27].port$o[13].channel typename "\"ned.IdealChannel\""
par RGG.node[72].port$o[2].channel typename "\"ned.IdealChannel\""
par RGG.node[27].port$o[14].channel typename "\"ned.IdealChannel\""
par RGG.node[80].port$o[0].channel typename "\"ned.IdealChannel\""
par RGG.node[27].port$o[15].channel typename "\"ned.IdealChannel\""
par RGG.node[81].port$o[6].channel typename "\"ned.IdealChannel\""
par RGG.node[27].port$o[16].channel typename "\"ned.IdealChannel\""
par RGG.node[93].port$o[6].channel typename "\"ned.IdealChannel\""
par RGG.node[27].port$o[17].channel typename "\"ned.IdealChannel\""
par RGG.node[98].port$o[5].channel typename "\"ned.IdealChannel\""
par RGG.node[28].port$o[2].channel typename "\"ned.IdealChannel\""
par RGG.node[30].port$o[4].channel typename "\"ned.IdealChannel\""
par RGG.node[28].port$o[3].channel typename "\"ned.IdealChannel\""
par RGG.node[44].port$o[3].channel typename "\"ned.IdealChannel\""
par RGG.node[28].port$o[4].channel typename "\"ned.IdealChannel\""
par RGG.node[77].port$o[4].channel typename "\"ned.IdealChannel\""
par RGG.node[28].port$o[5].channel typename "\"ned.IdealChannel\""
par RGG.node[85].port$o[3].channel typename "\"ned.IdealChannel\""
par RGG.node[28].port$o[6].channel typename "\"ned.IdealChannel\""
par RGG.node[90].port$o[4].channel typename "\"ned.IdealChannel\""
par RGG.node[29].port$o[6].channel typename "\"ned.IdealChannel\""
par RGG.node[32].port$o[1].channel typename "\"ned.IdealChannel\""
par RGG.node[29].port$o[7].channel typename "\"ned.IdealChannel\""
par RGG.node[35].port$o[2].channel typename "\"ned.IdealChannel\""
par RGG.node[29].port$o[8].channel typename "\"ned.IdealChannel\""
par RGG.node[53].port$o[8].channel typename "\"ned.IdealChannel\""
par RGG.node[29].port$o[9].channel typename "\"ned.IdealChannel\""
par RGG.node[59].port$o[1].channel typename "\"ned.IdealChannel\""
par RGG.node[29].port$o[10].channel typename "\"ned.IdealChannel\""
par RGG.node[60].port$o[7].channel typename "\"ned.IdealChannel\""
par RGG.node[29].port$o[11].channel typename "\"ned.IdealChannel\""
par RGG.node[62].port$o[4].channel typename "\"ned.IdealChannel\""
par RGG.node[29].port$o[12].channel typename "\"ned.IdealChannel\""
par RGG.node[63].port$o[6].channel typename "\"ned.IdealChannel\""
par RGG.node[29].port$o[13].channel typename "\"ned.IdealChannel\""
par RGG.node[72].port$o[3].channel typename "\"ned.IdealChannel\""
par RGG.node[29].port$o[14].channel typename "\"ned.IdealChannel\""
par RGG.node[80].port$o[1].channel typename "\"ned.IdealChannel\""
par RGG.node[29].port$o[15].channel typename "\"ned.IdealChannel\""
par RGG.node[81].port$o[7].channel typename "\"ned.IdealChannel\""
par RGG.node[29].port$o[16].channel typename "\"ned.IdealChannel\""
par RGG.node[93].port$o[7].channel typename "\"ned.IdealChannel\""
par RGG.node[29].port$o[17].channel typename "\"ned.IdealChannel\""
par RGG.node[98].port$o[6].channel typename "\"ned.IdealChannel\""
par RGG.node[30].port$o[5].channel typename "\"ned.IdealChannel\""
par RGG.node[36].port$o[6].channel typename "\"ned.IdealChannel\""
par RGG.node[30].port$o[6].channel typename "\"ned.IdealChannel\""
par RGG.node[44].port$o[4].channel typename "\"ned.IdealChannel\""
par RGG.node[30].port$o[7].channel typename "\"ned.IdealChannel\""
par RGG.node[77].port$o[5].channel typename "\"ned.IdealChannel\""
par RGG.node[30].port$o[8].channel typename "\"ned.IdealChannel\""
par RGG.node[78].port$o[3].channel typename "\"ned.IdealChannel\""
par RGG.node[30].port$o[9].channel typename "\"ned.IdealChannel\""
par RGG.node[82].port$o[6].channel typename "\"ned.IdealChannel\""
par RGG.node[30].port$o[10].channel typename "\"ned.IdealChannel\""
par RGG.node[85].port$o[4].channel typename "\"ned.IdealChannel\""
par RGG.node[30].port$o[11].channel typename "\"ned.IdealChannel\""
par RGG.node[90].port$o[5].channel typename "\"ned.IdealChannel\""
par RGG.node[31].port$o[4].channel typename "\"ned.IdealChannel\""
par RGG.node[39].port$o[4].channel typename "\"ned.IdealChannel\""
par RGG.node[31].port$o[5].channel typename "\"ned.IdealChannel\""
par RGG.node[48].port$o[4].channel typename "\"ned.IdealChannel\""
par RGG.node[31].port$o[6].channel typename "\"ned.IdealChannel\""
par RGG.node[50].port$o[3].channel typename "\"ned.IdealChannel\""
par RGG.node[31].port$o[7].channel typename "\"ned.IdealChannel\""
par RGG.node[51].port$o[6].channel typename "\"ned.IdealChannel\""
par RGG.node[31].port$o[8].channel typename "\"ned.IdealChannel\""
par RGG.node[54].port$o[6].channel typename "\"ned.IdealChannel\""
par RGG.node[31].port$o[9].channel typename "\"ned.IdealChannel\""
par RGG.node[61].port$o[4].channel typename "\"ned.IdealChannel\""
par RGG.node[31].port$o[10].channel typename "\"ned.IdealChannel\""
par RGG.node[70].port$o[4].channel typename "\"ned.IdealChannel\""
par RGG.node[31].port$o[11].channel typename "\"ned.IdealChannel\""
par RGG.node[75].port$o[4].channel typename "\"ned.IdealChannel\""
par RGG.node[31].port$o[12].channel typename "\"ned.IdealChannel\""
par RGG.node[76].port$o[3].channel typename "\"ned.IdealChannel\""
par RGG.node[31].port$o[13].channel typename "\"ned.IdealChannel\""
par RGG.node[79].port$o[4].channel typename "\"ned.IdealChannel\""
par RGG.node[31].port$o[14].channel typename "\"ned.IdealChannel\""
par RGG.node[95].port$o[2].channel typename "\"ned.IdealChannel\""
par RGG.node[31].port$o[15].channel typename "\"ned.IdealChannel\""
par RGG.node[99].port$o[4].channel typename "\"ned.IdealChannel\""
par RGG.node[32].port$o[2].channel typename "\"ned.IdealChannel\""
par RGG.node[35].port$o[3].channel typename "\"ned.IdealChannel\""
par RGG.node[32].port$o[3].channel typename "\"ned.IdealChannel\""
par RGG.node[59].port$o[2].channel typename "\"ned.IdealChannel\""
par RGG.node[32].port$o[4].channel typename "\"ned.IdealChannel\""
par RGG.node[66].port$o[2].channel typename "\"ned.IdealChannel\""
par RGG.node[32].port$o[5].channel typename "\"ned.IdealChannel\""
par RGG.node[73].port$o[3].channel typename "\"ned.IdealChannel\""
par RGG.node[32].port$o[6].channel typename "\"ned.IdealChannel\""
par RGG.node[80].port$o[2].channel typename "\"ned.IdealChannel\""
par RGG.node[32].port$o[7].channel typename "\"ned.IdealChannel\""
par RGG.node[92].port$o[3].channel typename "\"ned.IdealChannel\""
par RGG.node[32].port$o[8].channel typename "\"ned.IdealChannel\""
par RGG.node[93].port$o[8].channel typename "\"ned.IdealChannel\""
par RGG.node[33].port$o[3].channel typename "\"ned.IdealChannel\""
par RGG.node[40].port$o[3].channel typename "\"ned.IdealChannel\""
par RGG.node[33].port$o[4].channel typename "\"ned.IdealChannel\""
par RGG.node[51].port$o[7].channel typename "\"ned.IdealChannel\""
par RGG.node[33].port$o[5].channel typename "\"ned.IdealChannel\""
par RGG.node[54].port$o[7].channel typename "\"ned.IdealChannel\""
par RGG.node[33].port$o[6].channel typename "\"ned.IdealChannel\""
par RGG.node[55].port$o[3].channel typename "\"ned.IdealChannel\""
par RGG.node[33].port$o[7].channel typename "\"ned.IdealChannel\""
par RGG.node[56].port$o[4].channel typename "\"ned.IdealChannel\""
par RGG.node[33].port$o[8].channel typename "\"ned.IdealChannel\""
par RGG.node[76].port$o[4].channel typename "\"ned.IdealChannel\""
par RGG.node[33].port$o[9].channel typename "\"ned.IdealChannel\""
par RGG.node[86].port$o[3].channel typename "\"ned.IdealChannel\""
par RGG.node[33].port$o[10].channel typename "\"ned.IdealChannel\""
par RGG.node[91].port$o[3].channel typename "\"ned.IdealChannel\""
par RGG.node[33].port$o[11].channel typename "\"ned.IdealChannel\""
par RGG.node[95].port$o[3].channel typename "\"ned.IdealChannel\""
par RGG.node[33].port$o[12].channel typename "\"ned.IdealChannel\""
par RGG.node[96].port$o[2].channel typename "\"ned.IdealChannel\""
par RGG.node[33].port$o[13].channel typename "\"ned.IdealChannel\""
par RGG.node[97].port$o[5].channel typename "\"ned.IdealChannel\""
par RGG.node[33].port$o[14].channel typename "\"ned.IdealChannel\""
par RGG.node[99].port$o[5].channel typename "\"ned.IdealChannel\""
par RGG.node[34].port$o[4].channel typename "\"ned.IdealChannel\""
par RGG.node[43].port$o[4].channel typename "\"ned.IdealChannel\""
par RGG.node[34].port$o[5].channel typename "\"ned.IdealChannel\""
par RGG.node[52].port$o[5].channel typename "\"ned.IdealChannel\""
par RGG.node[34].port$o[6].channel typename "\"ned.IdealChannel\""
par RGG.node[87].port$o[7].channel typename "\"ned.IdealChannel\""
par RGG.node[35].port$o[4].channel typename "\"ned.IdealChannel\""
par RGG.node[59].port$o[3].channel typename "\"ned.IdealChannel\""
par RGG.node[35].port$o[5].channel typename "\"ned.IdealChannel\""
par RGG.node[80].port$o[3].channel typename "\"ned.IdealChannel\""
par RGG.node[35].port$o[6].channel typename "\"ned.IdealChannel\""
par RGG.node[93].port$o[9].channel typename "\"ned.IdealChannel\""
par RGG.node[36].port$o[7].channel typename "\"ned.IdealChannel\""
par RGG.node[53].port$o[9].channel typename "\"ned.IdealChannel\""
par RGG.node[36].port$o[8].channel typename "\"ned.IdealChannel\""
par RGG.node[67].port$o[7].channel typename "\"ned.IdealChannel\""
par RGG.node[36].port$o[9].channel typename "\"ned.IdealChannel\""
par RGG.node[78].port$o[4].channel typename "\"ned.IdealChannel\""
par RGG.node[36].port$o[10].channel typename "\"ned.IdealChannel\""
par RGG.node[81].port$o[8].channel typename "\"ned.IdealChannel\""
par RGG.node[36].port$o[11].channel typename "\"ned.IdealChannel\""
par RGG.node[82].port$o[7].channel typename "\"ned.IdealChannel\""
par RGG.node[36].port$o[12].channel typename "\"ned.IdealChannel\""
par RGG.node[90].port$o[6].channel typename "\"ned.IdealChannel\""
par RGG.node[37].port$o[2].channel typename "\"ned.IdealChannel\""
par RGG.node[38].port$o[2].channel typename "\"ned.IdealChannel\""
par RGG.node[37].port$o[3].channel typename "\"ned.IdealChannel\""
par RGG.node[41].port$o[4].channel typename "\"ned.IdealChannel\""
par RGG.node[37].port$o[4].channel typename "\"ned.IdealChannel\""
par RGG.node[42].port$o[4].channel typename "\"ned.IdealChannel\""
par RGG.node[37].port$o[5].channel typename "\"ned.IdealChannel\""
par RGG.node[51].port$o[8].channel typename "\"ned.IdealChannel\""
par RGG.node[37].port$o[6].channel typename "\"ned.IdealChannel\""
par RGG.node[57].port$o[2].channel typename "\"ned.IdealChannel\""
par RGG.node[37].port$o[7].channel typename "\"ned.IdealChannel\""
par RGG.node[58].port$o[3].channel typename "\"ned.IdealChannel\""
par RGG.node[37].port$o[8].channel typename "\"ned.IdealChannel\""
par RGG.node[64].port$o[1].channel typename "\"ned.IdealChannel\""
par RGG.node[37].port$o[9].channel typename "\"ned.IdealChannel\""
par RGG.node[68].port$o[5].channel typename "\"ned.IdealChannel\""
par RGG.node[37].port$o[10].channel typename "\"ned.IdealChannel\""
par RGG.node[69].port$o[3].channel typename "\"ned.IdealChannel\""
par RGG.node[37].port$o[11].channel typename "\"ned.IdealChannel\""
par RGG.node[71].port$o[4].channel typename "\"ned.IdealChannel\""
par RGG.node[37].port$o[12].channel typename "\"ned.IdealChannel\""
par RGG.node[83].port$o[4].channel typename "\"ned.IdealChannel\""
par RGG.node[37].port$o[13].channel typename "\"ned.IdealChannel\""
par RGG.node[84].port$o[5].channel typename "\"ned.IdealChannel\""
par RGG.node[37].port$o[14].channel typename "\"ned.IdealChannel\""
par RGG.node[88].port$o[3].channel typename "\"ned.IdealChannel\""
par RGG.node[37].port$o[15].channel typename "\"ned.IdealChannel\""
par RGG.node[89].port$o[3].channel typename "\"ned.IdealChannel\""
par RGG.node[38].port$o[3].channel typename "\"ned.IdealChannel\""
par RGG.node[43].port$o[5].channel typename "\"ned.IdealChannel\""
par RGG.node[38].port$o[4].channel typename "\"ned.IdealChannel\""
par RGG.node[49].port$o[8].channel typename "\"ned.IdealChannel\""
par RGG.node[38].port$o[5].channel typename "\"ned.IdealChannel\""
par RGG.node[52].port$o[6].channel typename "\"ned.IdealChannel\""
par RGG.node[38].port$o[6].channel typename "\"ned.IdealChannel\""
par RGG.node[57].port$o[3].channel typename "\"ned.IdealChannel\""
par RGG.node[38].port$o[7].channel typename "\"ned.IdealChannel\""
par RGG.node[58].port$o[4].channel typename "\"ned.IdealChannel\""
par RGG.node[38].port$o[8].channel typename "\"ned.IdealChannel\""
par RGG.node[64].port$o[2].channel typename "\"ned.IdealChannel\""
par RGG.node[38].port$o[9].channel typename "\"ned.IdealChannel\""
par RGG.node[65].port$o[6].channel typename "\"ned.IdealChannel\""
par RGG.node[38].port$o[10].channel typename "\"ned.IdealChannel\""
par RGG.node[68].port$o[6].channel typename "\"ned.IdealChannel\""
par RGG.node[38].port$o[11].channel typename "\"ned.IdealChannel\""
par RGG.node[69].port$o[4].channel typename "\"ned.IdealChannel\""
par RGG.node[38].port$o[12].channel typename "\"ned.IdealChannel\""
par RGG.node[83].port$o[5].channel typename "\"ned.IdealChannel\""
par RGG.node[38].port$o[13].channel typename "\"ned.IdealChannel\""
par RGG.node[84].port$o[6].channel typename "\"ned.IdealChannel\""
par RGG.node[38].port$o[14].channel typename "\"ned.IdealChannel\""
par RGG.node[88].port$o[4].channel typename "\"ned.IdealChannel\""
par RGG.node[38].port$o[15].channel typename "\"ned.IdealChannel\""
par RGG.node[89].port$o[4].channel typename "\"ned.IdealChannel\""
par RGG.node[39].port$o[5].channel typename "\"ned.IdealChannel\""
par RGG.node[48].port$o[5].channel typename "\"ned.IdealChannel\""
par RGG.node[39].port$o[6].channel typename "\"ned.IdealChannel\""
par RGG.node[50].port$o[4].channel typename "\"ned.IdealChannel\""
par RGG.node[39].port$o[7].channel typename "\"ned.IdealChannel\""
par RGG.node[51].port$o[9].channel typename "\"ned.IdealChannel\""
par RGG.node[39].port$o[8].channel typename "\"ned.IdealChannel\""
par RGG.node[54].port$o[8].channel typename "\"ned.IdealChannel\""
par RGG.node[39].port$o[9].channel typename "\"ned.IdealChannel\""
par RGG.node[61].port$o[5].channel typename "\"ned.IdealChannel\""
par RGG.node[39].port$o[10].channel typename "\"ned.IdealChannel\""
par RGG.node[70].port$o[5].channel typename "\"ned.IdealChannel\""
par RGG.node[39].port$o[11].channel typename "\"ned.IdealChannel\""
par RGG.node[75].port$o[5].channel typename "\"ned.IdealChannel\""
par RGG.node[39].port$o[12].channel typename "\"ned.IdealChannel\""
par RGG.node[76].port$o[5].channel typename "\"ned.IdealChannel\""
par RGG.node[39].port$o[13].channel typename "\"ned.IdealChannel\""
par RGG.node[79].port$o[5].channel typename "\"ned.IdealChannel\""
par RGG.node[39].port$o[14].channel typename "\"ned.IdealChannel\""
par RGG.node[86].port$o[4].channel typename "\"ned.IdealChannel\""
par RGG.node[39].port$o[15].channel typename "\"ned.IdealChannel\""
par RGG.node[95].port$o[4].channel typename "\"ned.IdealChannel\""
par RGG.node[39].port$o[16].channel typename "\"ned.IdealChannel\""
par RGG.node[96].port$o[3].channel typename "\"ned.IdealChannel\""
par RGG.node[39].port$o[17].channel typename "\"ned.IdealChannel\""
par RGG.node[97].port$o[6].channel typename "\"ned.IdealChannel\""
par RGG.node[39].port$o[18].channel typename "\"ned.IdealChannel\""
par RGG.node[99].port$o[6].channel typename "\"ned.IdealChannel\""
par RGG.node[40].port$o[4].channel typename "\"ned.IdealChannel\""
par RGG.node[42].port$o[5].channel typename "\"ned.IdealChannel\""
par RGG.node[40].port$o[5].channel typename "\"ned.IdealChannel\""
par RGG.node[47].port$o[2].channel typename "\"ned.IdealChannel\""
par RGG.node[40].port$o[6].channel typename "\"ned.IdealChannel\""
par RGG.node[51].port$o[10].channel typename "\"ned.IdealChannel\""
par RGG.node[40].port$o[7].channel typename "\"ned.IdealChannel\""
par RGG.node[55].port$o[4].channel typename "\"ned.IdealChannel\""
par RGG.node[40].port$o[8].channel typename "\"ned.IdealChannel\""
par RGG.node[56].port$o[5].channel typename "\"ned.IdealChannel\""
par RGG.node[40].port$o[9].channel typename "\"ned.IdealChannel\""
par RGG.node[57].port$o[4].channel typename "\"ned.IdealChannel\""
par RGG.node[40].port$o[10].channel typename "\"ned.IdealChannel\""
par RGG.node[58].port$o[5].channel typename "\"ned.IdealChannel\""
par RGG.node[40].port$o[11].channel typename "\"ned.IdealChannel\""
par RGG.node[64].port$o[3].channel typename "\"ned.IdealChannel\""
par RGG.node[40].port$o[12].channel typename "\"ned.IdealChannel\""
par RGG.node[71].port$o[5].channel typename "\"ned.IdealChannel\""
par RGG.node[40].port$o[13].channel typename "\"ned.IdealChannel\""
par RGG.node[86].port$o[5].channel typename "\"ned.IdealChannel\""
par RGG.node[40].port$o[14].channel typename "\"ned.IdealChannel\""
par RGG.node[91].port$o[4].channel typename "\"ned.IdealChannel\""
par RGG.node[40].port$o[15].channel typename "\"ned.IdealChannel\""
par RGG.node[95].port$o[5].channel typename "\"ned.IdealChannel\""
par RGG.node[40].port$o[16].channel typename "\"ned.IdealChannel\""
par RGG.node[96].port$o[4].channel typename "\"ned.IdealChannel\""
par RGG.node[40].port$o[17].channel typename "\"ned.IdealChannel\""
par RGG.node[97].port$o[7].channel typename "\"ned.IdealChannel\""
par RGG.node[41].port$o[5].channel typename "\"ned.IdealChannel\""
par RGG.node[42].port$o[6].channel typename "\"ned.IdealChannel\""
par RGG.node[41].port$o[6].channel typename "\"ned.IdealChannel\""
par RGG.node[57].port$o[5].channel typename "\"ned.IdealChannel\""
par RGG.node[41].port$o[7].channel typename "\"ned.IdealChannel\""
par RGG.node[60].port$o[8].channel typename "\"ned.IdealChannel\""
par RGG.node[41].port$o[8].channel typename "\"ned.IdealChannel\""
par RGG.node[64].port$o[4].channel typename "\"ned.IdealChannel\""
par RGG.node[41].port$o[9].channel typename "\"ned.IdealChannel\""
par RGG.node[67].port$o[8].channel typename "\"ned.IdealChannel\""
par RGG.node[41].port$o[10].channel typename "\"ned.IdealChannel\""
par RGG.node[69].port$o[5].channel typename "\"ned.IdealChannel\""
par RGG.node[41].port$o[11].channel typename "\"ned.IdealChannel\""
par RGG.node[71].port$o[6].channel typename "\"ned.IdealChannel\""
par RGG.node[41].port$o[12].channel typename "\"ned.IdealChannel\""
par RGG.node[82].port$o[8].channel typename "\"ned.IdealChannel\""
par RGG.node[41].port$o[13].channel typename "\"ned.IdealChannel\""
par RGG.node[83].port$o[6].channel typename "\"ned.IdealChannel\""
par RGG.node[42].port$o[7].channel typename "\"ned.IdealChannel\""
par RGG.node[56].port$o[6].channel typename "\"ned.IdealChannel\""
par RGG.node[42].port$o[8].channel typename "\"ned.IdealChannel\""
par RGG.node[57].port$o[6].channel typename "\"ned.IdealChannel\""
par RGG.node[42].port$o[9].channel typename "\"ned.IdealChannel\""
par RGG.node[64].port$o[5].channel typename "\"ned.IdealChannel\""
par RGG.node[42].port$o[10].channel typename "\"ned.IdealChannel\""
par RGG.node[67].port$o[9].channel typename "\"ned.IdealChannel\""
par RGG.node[42].port$o[11].channel typename "\"ned.IdealChannel\""
par RGG.node[71].port$o[7].channel typename "\"ned.IdealChannel\""
par RGG.node[42].port$o[12].channel typename "\"ned.IdealChannel\""
par RGG.node[82].port$o[9].channel typename "\"ned.IdealChannel\""
par RGG.node[42].port$o[13].channel typename "\"ned.IdealChannel\""
par RGG.node[83].port$o[7].channel typename "\"ned.IdealChannel\""
par RGG.node[43].port$o[6].channel typename "\"ned.IdealChannel\""
par RGG.node[52].port$o[7].channel typename "\"ned.IdealChannel\""
par RGG.node[43].port$o[7].channel typename "\"ned.IdealChannel\""
par RGG.node[68].port$o[7].channel typename "\"ned.IdealChannel\""
par RGG.node[43].port$o[8].channel typename "\"ned.IdealChannel\""
par RGG.node[84].port$o[7].channel typename "\"ned.IdealChannel\""
par RGG.node[43].port$o[9].channel typename "\"ned.IdealChannel\""
par RGG.node[87].port$o[8].channel typename "\"ned.IdealChannel\""
par RGG.node[44].port$o[5].channel typename "\"ned.IdealChannel\""
par RGG.node[77].port$o[6].channel typename "\"ned.IdealChannel\""
par RGG.node[44].port$o[6].channel typename "\"ned.IdealChannel\""
par RGG.node[85].port$o[5].channel typename "\"ned.IdealChannel\""
par RGG.node[44].port$o[7].channel typename "\"ned.IdealChannel\""
par RGG.node[90].port$o[7].channel typename "\"ned.IdealChannel\""
par RGG.node[45].port$o[6].channel typename "\"ned.IdealChannel\""
par RGG.node[46].port$o[5].channel typename "\"ned.IdealChannel\""
par RGG.node[45].port$o[7].channel typename "\"ned.IdealChannel\""
par RGG.node[49].port$o[9].channel typename "\"ned.IdealChannel\""
par RGG.node[45].port$o[8].channel typename "\"ned.IdealChannel\""
par RGG.node[74].port$o[5].channel typename "\"ned.IdealChannel\""
par RGG.node[45].port$o[9].channel typename "\"ned.IdealChannel\""
par RGG.node[87].port$o[9].channel typename "\"ned.IdealChannel\""
par RGG.node[45].port$o[10].channel typename "\"ned.IdealChannel\""
par RGG.node[94].port$o[6].channel typename "\"ned.IdealChannel\""
par RGG.node[46].port$o[6].channel typename "\"ned.IdealChannel\""
par RGG.node[49].port$o[10].channel typename "\"ned.IdealChannel\""
par RGG.node[46].port$o[7].channel typename "\"ned.IdealChannel\""
par RGG.node[74].port$o[6].channel typename "\"ned.IdealChannel\""
par RGG.node[46].port$o[8].channel typename "\"ned.IdealChannel\""
par RGG.node[87].port$o[10].channel typename "\"ned.IdealChannel\""
par RGG.node[46].port$o[9].channel typename "\"ned.IdealChannel\""
par RGG.node[94].port$o[7].channel typename "\"ned.IdealChannel\""
par RGG.node[47].port$o[3].channel typename "\"ned.IdealChannel\""
par RGG.node[55].port$o[5].channel typename "\"ned.IdealChannel\""
par RGG.node[47].port$o[4].channel typename "\"ned.IdealChannel\""
par RGG.node[56].port$o[7].channel typename "\"ned.IdealChannel\""
par RGG.node[47].port$o[5].channel typename "\"ned.IdealChannel\""
par RGG.node[77].port$o[7].channel typename "\"ned.IdealChannel\""
par RGG.node[47].port$o[6].channel typename "\"ned.IdealChannel\""
par RGG.node[85].port$o[6].channel typename "\"ned.IdealChannel\""
par RGG.node[48].port$o[6].channel typename "\"ned.IdealChannel\""
par RGG.node[50].port$o[5].channel typename "\"ned.IdealChannel\""
par RGG.node[48].port$o[7].channel typename "\"ned.IdealChannel\""
par RGG.node[51].port$o[11].channel typename "\"ned.IdealChannel\""
par RGG.node[48].port$o[8].channel typename "\"ned.IdealChannel\""
par RGG.node[54].port$o[9].channel typename "\"ned.IdealChannel\""
par RGG.node[48].port$o[9].channel typename "\"ned.IdealChannel\""
par RGG.node[61].port$o[6].channel typename "\"ned.IdealChannel\""
par RGG.node[48].port$o[10].channel typename "\"ned.IdealChannel\""
par RGG.node[70].port$o[6].channel typename "\"ned.IdealChannel\""
par RGG.node[48].port$o[11].channel typename "\"ned.IdealChannel\""
par RGG.node[75].port$o[6].channel typename "\"ned.IdealChannel\""
par RGG.node[48].port$o[12].channel typename "\"ned.IdealChannel\""
par RGG.node[76].port$o[6].channel typename "\"ned.IdealChannel\""
par RGG.node[48].port$o[13].channel typename "\"ned.IdealChannel\""
par RGG.node[79].port$o[6].channel typename "\"ned.IdealChannel\""
par RGG.node[48].port$o[14].channel typename "\"ned.IdealChannel\""
par RGG.node[86].port$o[6].channel typename "\"ned.IdealChannel\""
par RGG.node[48].port$o[15].channel typename "\"ned.IdealChannel\""
par RGG.node[95].port$o[6].channel typename "\"ned.IdealChannel\""
par RGG.node[48].port$o[16].channel typename "\"ned.IdealChannel\""
par RGG.node[96].port$o[5].channel typename "\"ned.IdealChannel\""
par RGG.node[48].port$o[17].channel typename "\"ned.IdealChannel\""
par RGG.node[97].port$o[8].channel typename "\"ned.IdealChannel\""
par RGG.node[48].port$o[18].channel typename "\"ned.IdealChannel\""
par RGG.node[99].port$o[7].channel typename "\"ned.IdealChannel\""
par RGG.node[49].port$o[11].channel typename "\"ned.IdealChannel\""
par RGG.node[52].port$o[8].channel typename "\"ned.IdealChannel\""
par RGG.node[49].port$o[12].channel typename "\"ned.IdealChannel\""
par RGG.node[65].port$o[7].channel typename "\"ned.IdealChannel\""
par RGG.node[49].port$o[13].channel typename "\"ned.IdealChannel\""
par RGG.node[66].port$o[3].channel typename "\"ned.IdealChannel\""
par RGG.node[49].port$o[14].channel typename "\"ned.IdealChannel\""
par RGG.node[87].port$o[11].channel typename "\"ned.IdealChannel\""
par RGG.node[49].port$o[15].channel typename "\"ned.IdealChannel\""
par RGG.node[88].port$o[5].channel typename "\"ned.IdealChannel\""
par RGG.node[49].port$o[16].channel typename "\"ned.IdealChannel\""
par RGG.node[89].port$o[5].channel typename "\"ned.IdealChannel\""
par RGG.node[49].port$o[17].channel typename "\"ned.IdealChannel\""
par RGG.node[94].port$o[8].channel typename "\"ned.IdealChannel\""
par RGG.node[50].port$o[6].channel typename "\"ned.IdealChannel\""
par RGG.node[54].port$o[10].channel typename "\"ned.IdealChannel\""
par RGG.node[50].port$o[7].channel typename "\"ned.IdealChannel\""
par RGG.node[61].port$o[7].channel typename "\"ned.IdealChannel\""
par RGG.node[50].port$o[8].channel typename "\"ned.IdealChannel\""
par RGG.node[70].port$o[7].channel typename "\"ned.IdealChannel\""
par RGG.node[50].port$o[9].channel typename "\"ned.IdealChannel\""
par RGG.node[75].port$o[7].channel typename "\"ned.IdealChannel\""
par RGG.node[50].port$o[10].channel typename "\"ned.IdealChannel\""
par RGG.node[76].port$o[7].channel typename "\"ned.IdealChannel\""
par RGG.node[50].port$o[11].channel typename "\"ned.IdealChannel\""
par RGG.node[79].port$o[7].channel typename "\"ned.IdealChannel\""
par RGG.node[50].port$o[12].channel typename "\"ned.IdealChannel\""
par RGG.node[95].port$o[7].channel typename "\"ned.IdealChannel\""
par RGG.node[50].port$o[13].channel typename "\"ned.IdealChannel\""
par RGG.node[96].port$o[6].channel typename "\"ned.IdealChannel\""
par RGG.node[50].port$o[14].channel typename "\"ned.IdealChannel\""
par RGG.node[99].port$o[8].channel typename "\"ned.IdealChannel\""
par RGG.node[51].port$o[12].channel typename "\"ned.IdealChannel\""
par RGG.node[54].port$o[11].channel typename "\"ned.IdealChannel\""
par RGG.node[51].port$o[13].channel typename "\"ned.IdealChannel\""
par RGG.node[57].port$o[7].channel typename "\"ned.IdealChannel\""
par RGG.node[51].port$o[14].channel typename "\"ned.IdealChannel\""
par RGG.node[58].port$o[6].channel typename "\"ned.IdealChannel\""
par RGG.node[51].port$o[15].channel typename "\"ned.IdealChannel\""
par RGG.node[64].port$o[6].channel typename "\"ned.IdealChannel\""
par RGG.node[51].port$o[16].channel typename "\"ned.IdealChannel\""
par RGG.node[68].port$o[8].channel typename "\"ned.IdealChannel\""
par RGG.node[51].port$o[17].channel typename "\"ned.IdealChannel\""
par RGG.node[69].port$o[6].channel typename "\"ned.IdealChannel\""
par RGG.node[51].port$o[18].channel typename "\"ned.IdealChannel\""
par RGG.node[71].port$o[8].channel typename "\"ned.IdealChannel\""
par RGG.node[51].port$o[19].channel typename "\"ned.IdealChannel\""
par RGG.node[75].port$o[8].channel typename "\"ned.IdealChannel\""
par RGG.node[51].port$o[20].channel typename "\"ned.IdealChannel\""
par RGG.node[76].port$o[8].channel typename "\"ned.IdealChannel\""
par RGG.node[51].port$o[21].channel typename "\"ned.IdealChannel\""
par RGG.node[79].port$o[8].channel typename "\"ned.IdealChannel\""
par RGG.node[51].port$o[22].channel typename "\"ned.IdealChannel\""
par RGG.node[84].port$o[8].channel typename "\"ned.IdealChannel\""
par RGG.node[51].port$o[23].channel typename "\"ned.IdealChannel\""
par RGG.node[86].port$o[7].channel typename "\"ned.IdealChannel\""
par RGG.node[51].port$o[24].channel typename "\"ned.IdealChannel\""
par RGG.node[91].port$o[5].channel typename "\"ned.IdealChannel\""
par RGG.node[51].port$o[25].channel typename "\"ned.IdealChannel\""
par RGG.node[95].port$o[8].channel typename "\"ned.IdealChannel\""
par RGG.node[51].port$o[26].channel typename "\"ned.IdealChannel\""
par RGG.node[96].port$o[7].channel typename "\"ned.IdealChannel\""
par RGG.node[51].port$o[27].channel typename "\"ned.IdealChannel\""
par RGG.node[97].port$o[9].channel typename "\"ned.IdealChannel\""
par RGG.node[51].port$o[28].channel typename "\"ned.IdealChannel\""
par RGG.node[99].port$o[9].channel typename "\"ned.IdealChannel\""
par RGG.node[52].port$o[9].channel typename "\"ned.IdealChannel\""
par RGG.node[65].port$o[8].channel typename "\"ned.IdealChannel\""
par RGG.node[52].port$o[10].channel typename "\"ned.IdealChannel\""
par RGG.node[87].port$o[12].channel typename "\"ned.IdealChannel\""
par RGG.node[52].port$o[11].channel typename "\"ned.IdealChannel\""
par RGG.node[88].port$o[6].channel typename "\"ned.IdealChannel\""
par RGG.node[52].port$o[12].channel typename "\"ned.IdealChannel\""
par RGG.node[89].port$o[6].channel typename "\"ned.IdealChannel\""
par RGG.node[53].port$o[10].channel typename "\"ned.IdealChannel\""
par RGG.node[62].port$o[5].channel typename "\"ned.IdealChannel\""
par RGG.node[53].port$o[11].channel typename "\"ned.IdealChannel\""
par RGG.node[63].port$o[7].channel typename "\"ned.IdealChannel\""
par RGG.node[53].port$o[12].channel typename "\"ned.IdealChannel\""
par RGG.node[78].port$o[5].channel typename "\"ned.IdealChannel\""
par RGG.node[53].port$o[13].channel typename "\"ned.IdealChannel\""
par RGG.node[81].port$o[9].channel typename "\"ned.IdealChannel\""
par RGG.node[53].port$o[14].channel typename "\"ned.IdealChannel\""
par RGG.node[98].port$o[7].channel typename "\"ned.IdealChannel\""
par RGG.node[54].port$o[12].channel typename "\"ned.IdealChannel\""
par RGG.node[58].port$o[7].channel typename "\"ned.IdealChannel\""
par RGG.node[54].port$o[13].channel typename "\"ned.IdealChannel\""
par RGG.node[61].port$o[8].channel typename "\"ned.IdealChannel\""
par RGG.node[54].port$o[14].channel typename "\"ned.IdealChannel\""
par RGG.node[70].port$o[8].channel typename "\"ned.IdealChannel\""
par RGG.node[54].port$o[15].channel typename "\"ned.IdealChannel\""
par RGG.node[75].port$o[9].channel typename "\"ned.IdealChannel\""
par RGG.node[54].port$o[16].channel typename "\"ned.IdealChannel\""
par RGG.node[76].port$o[9].channel typename "\"ned.IdealChannel\""
par RGG.node[54].port$o[17].channel typename "\"ned.IdealChannel\""
par RGG.node[79].port$o[9].channel typename "\"ned.IdealChannel\""
par RGG.node[54].port$o[18].channel typename "\"ned.IdealChannel\""
par RGG.node[86].port$o[8].channel typename "\"ned.IdealChannel\""
par RGG.node[54].port$o[19].channel typename "\"ned.IdealChannel\""
par RGG.node[91].port$o[6].channel typename "\"ned.IdealChannel\""
par RGG.node[54].port$o[20].channel typename "\"ned.IdealChannel\""
par RGG.node[95].port$o[9].channel typename "\"ned.IdealChannel\""
par RGG.node[54].port$o[21].channel typename "\"ned.IdealChannel\""
par RGG.node[96].port$o[8].channel typename "\"ned.IdealChannel\""
par RGG.node[54].port$o[22].channel typename "\"ned.IdealChannel\""
par RGG.node[97].port$o[10].channel typename "\"ned.IdealChannel\""
par RGG.node[54].port$o[23].channel typename "\"ned.IdealChannel\""
par RGG.node[99].port$o[10].channel typename "\"ned.IdealChannel\""
par RGG.node[55].port$o[6].channel typename "\"ned.IdealChannel\""
par RGG.node[56].port$o[8].channel typename "\"ned.IdealChannel\""
par RGG.node[55].port$o[7].channel typename "\"ned.IdealChannel\""
par RGG.node[91].port$o[7].channel typename "\"ned.IdealChannel\""
par RGG.node[56].port$o[9].channel typename "\"ned.IdealChannel\""
par RGG.node[67].port$o[10].channel typename "\"ned.IdealChannel\""
par RGG.node[56].port$o[10].channel typename "\"ned.IdealChannel\""
par RGG.node[71].port$o[9].channel typename "\"ned.IdealChannel\""
par RGG.node[56].port$o[11].channel typename "\"ned.IdealChannel\""
par RGG.node[82].port$o[10].channel typename "\"ned.IdealChannel\""
par RGG.node[56].port$o[12].channel typename "\"ned.IdealChannel\""
par RGG.node[90].port$o[8].channel typename "\"ned.IdealChannel\""
par RGG.node[56].port$o[13].channel typename "\"ned.IdealChannel\""
par RGG.node[91].port$o[8].channel typename "\"ned.IdealChannel\""
par RGG.node[57].port$o[8].channel typename "\"ned.IdealChannel\""
par RGG.node[58].port$o[8].channel typename "\"ned.IdealChannel\""
par RGG.node[57].port$o[9].channel typename "\"ned.IdealChannel\""
par RGG.node[64].port$o[7].channel typename "\"ned.IdealChannel\""
par RGG.node[57].port$o[10].channel typename "\"ned.IdealChannel\""
par RGG.node[68].port$o[9].channel typename "\"ned.IdealChannel\""
par RGG.node[57].port$o[11].channel typename "\"ned.IdealChannel\""
par RGG.node[69].port$o[7].channel typename "\"ned.IdealChannel\""
par RGG.node[57].port$o[12].channel typename "\"ned.IdealChannel\""
par RGG.node[71].port$o[10].channel typename "\"ned.IdealChannel\""
par RGG.node[57].port$o[13].channel typename "\"ned.IdealChannel\""
par RGG.node[83].port$o[8].channel typename "\"ned.IdealChannel\""
par RGG.node[57].port$o[14].channel typename "\"ned.IdealChannel\""
par RGG.node[84].port$o[9].channel typename "\"ned.IdealChannel\""
par RGG.node[57].port$o[15].channel typename "\"ned.IdealChannel\""
par RGG.node[86].port$o[9].channel typename "\"ned.IdealChannel\""
par RGG.node[57].port$o[16].channel typename "\"ned.IdealChannel\""
par RGG.node[89].port$o[7].channel typename "\"ned.IdealChannel\""
par RGG.node[57].port$o[17].channel typename "\"ned.IdealChannel\""
par RGG.node[97].port$o[11].channel typename "\"ned.IdealChannel\""
par RGG.node[58].port$o[9].channel typename "\"ned.IdealChannel\""
par RGG.node[64].port$o[8].channel typename "\"ned.IdealChannel\""
par RGG.node[58].port$o[10].channel typename "\"ned.IdealChannel\""
par RGG.node[68].port$o[10].channel typename "\"ned.IdealChannel\""
par RGG.node[58].port$o[11].channel typename "\"ned.IdealChannel\""
par RGG.node[69].port$o[8].channel typename "\"ned.IdealChannel\""
par RGG.node[58].port$o[12].channel typename "\"ned.IdealChannel\""
[...]
par RGG.node[68].port$o[13].channel typename "\"ned.IdealChannel\""
par RGG.node[79].port$o[11].channel typename "\"ned.IdealChannel\""
par RGG.node[68].port$o[14].channel typename "\"ned.IdealChannel\""
par RGG.node[84].port$o[12].channel typename "\"ned.IdealChannel\""
par RGG.node[68].port$o[15].channel typename "\"ned.IdealChannel\""
par RGG.node[89].port$o[10].channel typename "\"ned.IdealChannel\""
par RGG.node[69].port$o[11].channel typename "\"ned.IdealChannel\""
par RGG.node[71].port$o[14].channel typename "\"ned.IdealChannel\""
par RGG.node[69].port$o[12].channel typename "\"ned.IdealChannel\""
par RGG.node[83].port$o[13].channel typename "\"ned.IdealChannel\""
par RGG.node[69].port$o[13].channel typename "\"ned.IdealChannel\""
par RGG.node[84].port$o[13].channel typename "\"ned.IdealChannel\""
par RGG.node[69].port$o[14].channel typename "\"ned.IdealChannel\""
par RGG.node[88].port$o[9].channel typename "\"ned.IdealChannel\""
par RGG.node[69].port$o[15].channel typename "\"ned.IdealChannel\""
par RGG.node[89].port$o[11].channel typename "\"ned.IdealChannel\""
par RGG.node[70].port$o[10].channel typename "\"ned.IdealChannel\""
par RGG.node[75].port$o[11].channel typename "\"ned.IdealChannel\""
par RGG.node[70].port$o[11].channel typename "\"ned.IdealChannel\""
par RGG.node[76].port$o[12].channel typename "\"ned.IdealChannel\""
par RGG.node[70].port$o[12].channel typename "\"ned.IdealChannel\""
par RGG.node[79].port$o[12].channel typename "\"ned.IdealChannel\""
par RGG.node[70].port$o[13].channel typename "\"ned.IdealChannel\""
par RGG.node[99].port$o[13].channel typename "\"ned.IdealChannel\""
par RGG.node[71].port$o[15].channel typename "\"ned.IdealChannel\""
par RGG.node[82].port$o[12].channel typename "\"ned.IdealChannel\""
par RGG.node[71].port$o[16].channel typename "\"ned.IdealChannel\""
par RGG.node[83].port$o[14].channel typename "\"ned.IdealChannel\""
par RGG.node[71].port$o[17].channel typename "\"ned.IdealChannel\""
par RGG.node[86].port$o[12].channel typename "\"ned.IdealChannel\""
par RGG.node[71].port$o[18].channel typename "\"ned.IdealChannel\""
par RGG.node[91].port$o[10].channel typename "\"ned.IdealChannel\""
par RGG.node[71].port$o[19].channel typename "\"ned.IdealChannel\""
par RGG.node[97].port$o[14].channel typename "\"ned.IdealChannel\""
par RGG.node[72].port$o[6].channel typename "\"ned.IdealChannel\""
par RGG.node[80].port$o[5].channel typename "\"ned.IdealChannel\""
par RGG.node[72].port$o[7].channel typename "\"ned.IdealChannel\""
par RGG.node[98].port$o[10].channel typename "\"ned.IdealChannel\""
par RGG.node[73].port$o[7].channel typename "\"ned.IdealChannel\""
par RGG.node[83].port$o[15].channel typename "\"ned.IdealChannel\""
par RGG.node[73].port$o[8].channel typename "\"ned.IdealChannel\""
par RGG.node[88].port$o[10].channel typename "\"ned.IdealChannel\""
par RGG.node[73].port$o[9].channel typename "\"ned.IdealChannel\""
par RGG.node[89].port$o[12].channel typename "\"ned.IdealChannel\""
par RGG.node[73].port$o[10].channel typename "\"ned.IdealChannel\""
par RGG.node[93].port$o[14].channel typename "\"ned.IdealChannel\""
par RGG.node[74].port$o[7].channel typename "\"ned.IdealChannel\""
par RGG.node[87].port$o[14].channel typename "\"ned.IdealChannel\""
par RGG.node[74].port$o[8].channel typename "\"ned.IdealChannel\""
par RGG.node[94].port$o[9].channel typename "\"ned.IdealChannel\""
par RGG.node[75].port$o[12].channel typename "\"ned.IdealChannel\""
par RGG.node[76].port$o[13].channel typename "\"ned.IdealChannel\""
par RGG.node[75].port$o[13].channel typename "\"ned.IdealChannel\""
par RGG.node[79].port$o[13].channel typename "\"ned.IdealChannel\""
par RGG.node[75].port$o[14].channel typename "\"ned.IdealChannel\""
par RGG.node[95].port$o[11].channel typename "\"ned.IdealChannel\""
par RGG.node[75].port$o[15].channel typename "\"ned.IdealChannel\""
par RGG.node[97].port$o[15].channel typename "\"ned.IdealChannel\""
par RGG.node[75].port$o[16].channel typename "\"ned.IdealChannel\""
par RGG.node[99].port$o[14].channel typename "\"ned.IdealChannel\""
par RGG.node[76].port$o[14].channel typename "\"ned.IdealChannel\""
par RGG.node[86].port$o[13].channel typename "\"ned.IdealChannel\""
par RGG.node[76].port$o[15].channel typename "\"ned.IdealChannel\""
par RGG.node[91].port$o[11].channel typename "\"ned.IdealChannel\""
par RGG.node[76].port$o[16].channel typename "\"ned.IdealChannel\""
par RGG.node[95].port$o[12].channel typename "\"ned.IdealChannel\""
par RGG.node[76].port$o[17].channel typename "\"ned.IdealChannel\""
par RGG.node[96].port$o[9].channel typename "\"ned.IdealChannel\""
par RGG.node[76].port$o[18].channel typename "\"ned.IdealChannel\""
par RGG.node[97].port$o[16].channel typename "\"ned.IdealChannel\""
par RGG.node[76].port$o[19].channel typename "\"ned.IdealChannel\""
par RGG.node[99].port$o[15].channel typename "\"ned.IdealChannel\""
par RGG.node[77].port$o[8].channel typename "\"ned.IdealChannel\""
par RGG.node[85].port$o[7].channel typename "\"ned.IdealChannel\""
par RGG.node[77].port$o[9].channel typename "\"ned.IdealChannel\""
par RGG.node[90].port$o[10].channel typename "\"ned.IdealChannel\""
par RGG.node[78].port$o[7].channel typename "\"ned.IdealChannel\""
par RGG.node[81].port$o[12].channel typename "\"ned.IdealChannel\""
par RGG.node[79].port$o[14].channel typename "\"ned.IdealChannel\""
par RGG.node[84].port$o[14].channel typename "\"ned.IdealChannel\""
par RGG.node[81].port$o[13].channel typename "\"ned.IdealChannel\""
par RGG.node[93].port$o[15].channel typename "\"ned.IdealChannel\""
par RGG.node[81].port$o[14].channel typename "\"ned.IdealChannel\""
par RGG.node[98].port$o[11].channel typename "\"ned.IdealChannel\""
par RGG.node[82].port$o[13].channel typename "\"ned.IdealChannel\""
par RGG.node[90].port$o[11].channel typename "\"ned.IdealChannel\""
par RGG.node[83].port$o[16].channel typename "\"ned.IdealChannel\""
par RGG.node[88].port$o[11].channel typename "\"ned.IdealChannel\""
par RGG.node[83].port$o[17].channel typename "\"ned.IdealChannel\""
par RGG.node[89].port$o[13].channel typename "\"ned.IdealChannel\""
par RGG.node[84].port$o[15].channel typename "\"ned.IdealChannel\""
par RGG.node[89].port$o[14].channel typename "\"ned.IdealChannel\""
par RGG.node[84].port$o[16].channel typename "\"ned.IdealChannel\""
par RGG.node[97].port$o[17].channel typename "\"ned.IdealChannel\""
par RGG.node[85].port$o[8].channel typename "\"ned.IdealChannel\""
par RGG.node[90].port$o[12].channel typename "\"ned.IdealChannel\""
par RGG.node[86].port$o[14].channel typename "\"ned.IdealChannel\""
par RGG.node[91].port$o[12].channel typename "\"ned.IdealChannel\""
par RGG.node[86].port$o[15].channel typename "\"ned.IdealChannel\""
par RGG.node[95].port$o[13].channel typename "\"ned.IdealChannel\""
par RGG.node[86].port$o[16].channel typename "\"ned.IdealChannel\""
par RGG.node[96].port$o[10].channel typename "\"ned.IdealChannel\""
par RGG.node[86].port$o[17].channel typename "\"ned.IdealChannel\""
par RGG.node[97].port$o[18].channel typename "\"ned.IdealChannel\""
par RGG.node[86].port$o[18].channel typename "\"ned.IdealChannel\""
par RGG.node[99].port$o[16].channel typename "\"ned.IdealChannel\""
par RGG.node[87].port$o[15].channel typename "\"ned.IdealChannel\""
par RGG.node[94].port$o[10].channel typename "\"ned.IdealChannel\""
par RGG.node[88].port$o[12].channel typename "\"ned.IdealChannel\""
par RGG.node[89].port$o[15].channel typename "\"ned.IdealChannel\""
par RGG.node[91].port$o[13].channel typename "\"ned.IdealChannel\""
par RGG.node[95].port$o[14].channel typename "\"ned.IdealChannel\""
par RGG.node[91].port$o[14].channel typename "\"ned.IdealChannel\""
par RGG.node[96].port$o[11].channel typename "\"ned.IdealChannel\""
par RGG.node[91].port$o[15].channel typename "\"ned.IdealChannel\""
par RGG.node[97].port$o[19].channel typename "\"ned.IdealChannel\""
par RGG.node[91].port$o[16].channel typename "\"ned.IdealChannel\""
par RGG.node[99].port$o[17].channel typename "\"ned.IdealChannel\""
par RGG.node[93].port$o[16].channel typename "\"ned.IdealChannel\""
par RGG.node[98].port$o[12].channel typename "\"ned.IdealChannel\""
par RGG.node[95].port$o[15].channel typename "\"ned.IdealChannel\""
par RGG.node[96].port$o[12].channel typename "\"ned.IdealChannel\""
par RGG.node[95].port$o[16].channel typename "\"ned.IdealChannel\""
par RGG.node[97].port$o[20].channel typename "\"ned.IdealChannel\""
par RGG.node[95].port$o[17].channel typename "\"ned.IdealChannel\""
par RGG.node[99].port$o[18].channel typename "\"ned.IdealChannel\""
par RGG.node[96].port$o[13].channel typename "\"ned.IdealChannel\""
par RGG.node[97].port$o[21].channel typename "\"ned.IdealChannel\""
par RGG.node[96].port$o[14].channel typename "\"ned.IdealChannel\""
par RGG.node[99].port$o[19].channel typename "\"ned.IdealChannel\""
par RGG.node[97].port$o[22].channel typename "\"ned.IdealChannel\""
par RGG.node[99].port$o[20].channel typename "\"ned.IdealChannel\""
par RGG.node[0] typename "\"randomw.Node\""
par RGG.node[0] xCor 0.290678
par RGG.node[0] yCor 0.64476
par RGG.node[1] typename "\"randomw.Node\""
par RGG.node[1] xCor 0.0992771
par RGG.node[1] yCor 0.223759
par RGG.node[2] typename "\"randomw.Node\""
par RGG.node[2] xCor 0.249007
par RGG.node[2] yCor 0.0763684
par RGG.node[3] typename "\"randomw.Node\""
par RGG.node[3] xCor 0.396347
par RGG.node[3] yCor 0.970803
par RGG.node[4] typename "\"randomw.Node\""
par RGG.node[4] xCor 0.0723938
par RGG.node[4] yCor 0.66783
par RGG.node[5] typename "\"randomw.Node\""
par RGG.node[5] xCor 0.217645
par RGG.node[5] yCor 0.160364
par RGG.node[6] typename "\"randomw.Node\""
par RGG.node[6] xCor 0.990484
par RGG.node[6] yCor 0.743429
par RGG.node[7] typename "\"randomw.Node\""
par RGG.node[7] xCor 0.631038
par RGG.node[7] yCor 0.328394
par RGG.node[8] typename "\"randomw.Node\""
par RGG.node[8] xCor 0.647354
par RGG.node[8] yCor 0.599662
par RGG.node[9] typename "\"randomw.Node\""
par RGG.node[9] xCor 0.511369
par RGG.node[9] yCor 0.844459
par RGG.node[10] typename "\"randomw.Node\""
par RGG.node[10] xCor 0.72125
par RGG.node[10] yCor 0.417102
par RGG.node[11] typename "\"randomw.Node\""
par RGG.node[11] xCor 0.0618549
par RGG.node[11] yCor 0.111588
par RGG.node[12] typename "\"randomw.Node\""
par RGG.node[12] xCor 0.406937
par RGG.node[12] yCor 0.217959
par RGG.node[13] typename "\"randomw.Node\""
par RGG.node[13] xCor 0.0819527
par RGG.node[13] yCor 0.919033
par RGG.node[14] typename "\"randomw.Node\""
par RGG.node[14] xCor 0.219206
par RGG.node[14] yCor 0.0582897
par RGG.node[15] typename "\"randomw.Node\""
par RGG.node[15] xCor 0.818857
par RGG.node[15] yCor 0.673275
par RGG.node[16] typename "\"randomw.Node\""
par RGG.node[16] xCor 0.0974539
par RGG.node[16] yCor 0.739764
par RGG.node[17] typename "\"randomw.Node\""
par RGG.node[17] xCor 0.653425
par RGG.node[17] yCor 0.393974
par RGG.node[18] typename "\"randomw.Node\""
par RGG.node[18] xCor 0.881485
par RGG.node[18] yCor 0.635834
par RGG.node[19] typename "\"randomw.Node\""
par RGG.node[19] xCor 0.0531263
par RGG.node[19] yCor 0.280813
par RGG.node[20] typename "\"randomw.Node\""
par RGG.node[20] xCor 0.990418
par RGG.node[20] yCor 0.939609
par RGG.node[21] typename "\"randomw.Node\""
par RGG.node[21] xCor 0.0449224
par RGG.node[21] yCor 0.710501
par RGG.node[22] typename "\"randomw.Node\""
par RGG.node[22] xCor 0.200867
par RGG.node[22] yCor 0.38694
par RGG.node[23] typename "\"randomw.Node\""
par RGG.node[23] xCor 0.821081
par RGG.node[23] yCor 0.299643
par RGG.node[24] typename "\"randomw.Node\""
par RGG.node[24] xCor 0.599407
par RGG.node[24] yCor 0.846974
par RGG.node[25] typename "\"randomw.Node\""
par RGG.node[25] xCor 0.65343
par RGG.node[25] yCor 0.488914
par RGG.node[26] typename "\"randomw.Node\""
par RGG.node[26] xCor 0.900456
par RGG.node[26] yCor 0.224608
par RGG.node[27] typename "\"randomw.Node\""
par RGG.node[27] xCor 0.796188
par RGG.node[27] yCor 0.23967
par RGG.node[28] typename "\"randomw.Node\""
par RGG.node[28] xCor 0.939424
par RGG.node[28] yCor 0.962724
par RGG.node[29] typename "\"randomw.Node\""
par RGG.node[29] xCor 0.762207
par RGG.node[29] yCor 0.215159
par RGG.node[30] typename "\"randomw.Node\""
par RGG.node[30] xCor 0.897707
par RGG.node[30] yCor 0.744978
par RGG.node[31] typename "\"randomw.Node\""
par RGG.node[31] xCor 0.0588738
par RGG.node[31] yCor 0.868354
par RGG.node[32] typename "\"randomw.Node\""
par RGG.node[32] xCor 0.638805
par RGG.node[32] yCor 0.0770211
par RGG.node[33] typename "\"randomw.Node\""
par RGG.node[33] xCor 0.423475
par RGG.node[33] yCor 0.957578
par RGG.node[34] typename "\"randomw.Node\""
par RGG.node[34] xCor 0.0133326
par RGG.node[34] yCor 0.328975
par RGG.node[35] typename "\"randomw.Node\""
par RGG.node[35] xCor 0.754897
par RGG.node[35] yCor 0.0339934
par RGG.node[36] typename "\"randomw.Node\""
par RGG.node[36] xCor 0.796789
par RGG.node[36] yCor 0.559713
par RGG.node[37] typename "\"randomw.Node\""
par RGG.node[37] xCor 0.339845
par RGG.node[37] yCor 0.567716
par RGG.node[38] typename "\"randomw.Node\""
par RGG.node[38] xCor 0.244698
par RGG.node[38] yCor 0.451378
par RGG.node[39] typename "\"randomw.Node\""
par RGG.node[39] xCor 0.126836
par RGG.node[39] yCor 0.875246
par RGG.node[40] typename "\"randomw.Node\""
par RGG.node[40] xCor 0.449418
par RGG.node[40] yCor 0.849482
par RGG.node[41] typename "\"randomw.Node\""
par RGG.node[41] xCor 0.539331
par RGG.node[41] yCor 0.562033
par RGG.node[42] typename "\"randomw.Node\""
par RGG.node[42] xCor 0.560225
par RGG.node[42] yCor 0.641447
par RGG.node[43] typename "\"randomw.Node\""
par RGG.node[43] xCor 0.020842
par RGG.node[43] yCor 0.42987
par RGG.node[44] typename "\"randomw.Node\""
par RGG.node[44] xCor 0.92182
par RGG.node[44] yCor 0.891886
par RGG.node[45] typename "\"randomw.Node\""
par RGG.node[45] xCor 0.0779745
par RGG.node[45] yCor 0.0777928
par RGG.node[46] typename "\"randomw.Node\""
par RGG.node[46] xCor 0.139021
par RGG.node[46] yCor 0.0308732
par RGG.node[47] typename "\"randomw.Node\""
par RGG.node[47] xCor 0.67499
par RGG.node[47] yCor 0.954673
par RGG.node[48] typename "\"randomw.Node\""
par RGG.node[48] xCor 0.128881
par RGG.node[48] yCor 0.890223
par RGG.node[49] typename "\"randomw.Node\""
par RGG.node[49] xCor 0.262761
par RGG.node[49] yCor 0.210997
par RGG.node[50] typename "\"randomw.Node\""
par RGG.node[50] xCor 0.0538253
par RGG.node[50] yCor 0.937636
par RGG.node[51] typename "\"randomw.Node\""
par RGG.node[51] xCor 0.255619
par RGG.node[51] yCor 0.78973
par RGG.node[52] typename "\"randomw.Node\""
par RGG.node[52] xCor 0.180964
par RGG.node[52] yCor 0.328322
par RGG.node[53] typename "\"randomw.Node\""
par RGG.node[53] xCor 0.873639
par RGG.node[53] yCor 0.43401
par RGG.node[54] typename "\"randomw.Node\""
par RGG.node[54] xCor 0.200345
par RGG.node[54] yCor 0.872475
par RGG.node[55] typename "\"randomw.Node\""
par RGG.node[55] xCor 0.56194
par RGG.node[55] yCor 0.952095
par RGG.node[56] typename "\"randomw.Node\""
par RGG.node[56] xCor 0.620006
par RGG.node[56] yCor 0.820799
par RGG.node[57] typename "\"randomw.Node\""
par RGG.node[57] xCor 0.322113
par RGG.node[57] yCor 0.639886
par RGG.node[58] typename "\"randomw.Node\""
par RGG.node[58] xCor 0.30025
par RGG.node[58] yCor 0.688102
par RGG.node[59] typename "\"randomw.Node\""
par RGG.node[59] xCor 0.676247
par RGG.node[59] yCor 0.028924
par RGG.node[60] typename "\"randomw.Node\""
par RGG.node[60] xCor 0.581798
par RGG.node[60] yCor 0.33893
par RGG.node[61] typename "\"randomw.Node\""
par RGG.node[61] xCor 0.0302645
par RGG.node[61] yCor 0.91253
par RGG.node[62] typename "\"randomw.Node\""
par RGG.node[62] xCor 0.930722
par RGG.node[62] yCor 0.31075
par RGG.node[63] typename "\"randomw.Node\""
par RGG.node[63] xCor 0.864416
par RGG.node[63] yCor 0.260502
par RGG.node[64] typename "\"randomw.Node\""
par RGG.node[64] xCor 0.352541
par RGG.node[64] yCor 0.62452
par RGG.node[65] typename "\"randomw.Node\""
par RGG.node[65] xCor 0.314479
par RGG.node[65] yCor 0.245707
par RGG.node[66] typename "\"randomw.Node\""
par RGG.node[66] xCor 0.478909
par RGG.node[66] yCor 0.128989
par RGG.node[67] typename "\"randomw.Node\""
par RGG.node[67] xCor 0.647328
par RGG.node[67] yCor 0.630605
par RGG.node[68] typename "\"randomw.Node\""
par RGG.node[68] xCor 0.204453
par RGG.node[68] yCor 0.591478
par RGG.node[69] typename "\"randomw.Node\""
par RGG.node[69] xCor 0.298057
par RGG.node[69] yCor 0.561306
par RGG.node[70] typename "\"randomw.Node\""
par RGG.node[70] xCor 0.00231499
par RGG.node[70] yCor 0.849289
par RGG.node[71] typename "\"randomw.Node\""
par RGG.node[71] xCor 0.45745
par RGG.node[71] yCor 0.677064
par RGG.node[72] typename "\"randomw.Node\""
par RGG.node[72] xCor 0.99023
par RGG.node[72] yCor 0.131032
par RGG.node[73] typename "\"randomw.Node\""
par RGG.node[73] xCor 0.508791
par RGG.node[73] yCor 0.268254
par RGG.node[74] typename "\"randomw.Node\""
par RGG.node[74] xCor 0.0382658
par RGG.node[74] yCor 0.0262451
par RGG.node[75] typename "\"randomw.Node\""
par RGG.node[75] xCor 0.0633759
par RGG.node[75] yCor 0.846679
par RGG.node[76] typename "\"randomw.Node\""
par RGG.node[76] xCor 0.205794
par RGG.node[76] yCor 0.908845
par RGG.node[77] typename "\"randomw.Node\""
par RGG.node[77] xCor 0.894279
par RGG.node[77] yCor 0.849089
par RGG.node[78] typename "\"randomw.Node\""
par RGG.node[78] xCor 0.977727
par RGG.node[78] yCor 0.529763
par RGG.node[79] typename "\"randomw.Node\""
par RGG.node[79] xCor 0.0387869
par RGG.node[79] yCor 0.693575
par RGG.node[80] typename "\"randomw.Node\""
par RGG.node[80] xCor 0.781185
par RGG.node[80] yCor 0.00412784
par RGG.node[81] typename "\"randomw.Node\""
par RGG.node[81] xCor 0.875288
par RGG.node[81] yCor 0.39781
par RGG.node[82] typename "\"randomw.Node\""
par RGG.node[82] xCor 0.669772
par RGG.node[82] yCor 0.700163
par RGG.node[83] typename "\"randomw.Node\""
par RGG.node[83] xCor 0.438299
par RGG.node[83] yCor 0.499367
par RGG.node[84] typename "\"randomw.Node\""
par RGG.node[84] xCor 0.170035
par RGG.node[84] yCor 0.616404
par RGG.node[85] typename "\"randomw.Node\""
par RGG.node[85] xCor 0.859016
par RGG.node[85] yCor 0.919407
par RGG.node[86] typename "\"randomw.Node\""
par RGG.node[86] xCor 0.338067
par RGG.node[86] yCor 0.824397
par RGG.node[87] typename "\"randomw.Node\""
par RGG.node[87] xCor 0.0744178
par RGG.node[87] yCor 0.225482
par RGG.node[88] typename "\"randomw.Node\""
par RGG.node[88] xCor 0.361348
par RGG.node[88] yCor 0.350769
par RGG.node[89] typename "\"randomw.Node\""
par RGG.node[89] xCor 0.318703
par RGG.node[89] yCor 0.428137
par RGG.node[90] typename "\"randomw.Node\""
par RGG.node[90] xCor 0.842105
par RGG.node[90] yCor 0.766998
par RGG.node[91] typename "\"randomw.Node\""
par RGG.node[91] xCor 0.413702
par RGG.node[91] yCor 0.904017
par RGG.node[92] typename "\"randomw.Node\""
par RGG.node[92] xCor 0.46028
par RGG.node[92] yCor 0.00920964
par RGG.node[93] typename "\"randomw.Node\""
par RGG.node[93] xCor 0.693195
par RGG.node[93] yCor 0.260705
par RGG.node[94] typename "\"randomw.Node\""
par RGG.node[94] xCor 0.140687
par RGG.node[94] yCor 0.0637979
par RGG.node[95] typename "\"randomw.Node\""
par RGG.node[95] xCor 0.270912
par RGG.node[95] yCor 0.955843
par RGG.node[96] typename "\"randomw.Node\""
par RGG.node[96] xCor 0.294721
par RGG.node[96] yCor 0.970434
par RGG.node[97] typename "\"randomw.Node\""
par RGG.node[97] xCor 0.309635
par RGG.node[97] yCor 0.82363
par RGG.node[98] typename "\"randomw.Node\""
par RGG.node[98] xCor 0.866103
par RGG.node[98] yCor 0.281286
par RGG.node[99] typename "\"randomw.Node\""
par RGG.node[99] xCor 0.185589
par RGG.node[99] yCor 0.905973
par RGG.host typename "\"randomw.Host\""
par RGG.host startNodeIndex 1
attr mutable ""
par RGG.host startNode 11
par RGG typename "\"randomw.simulations.RGG\""
par RGG numNodes 100
par RGG rc 0.25
par RGG enableDuplication true
attr mutable ""
par RGG noBacktracking false
attr mutable ""
par RGG numWalkers 1

