file 59438 1756984394                                           
version 3
run General-88-20250904-14:13:14-15342
attr configname General
attr datetime 20250904-14:13:14
attr datetimef 20250904-141314
attr experiment General
attr inifile omnetpp.ini
attr iterationvars ""
attr iterationvarsd ""
attr iterationvarsf ""
attr measurement ""
attr network TaxiNetwork
attr processid 15342
attr repetition 88
attr replication #88
attr resultdir results
attr runnumber 88
attr seedset 88
config network TaxiNetwork
config seed-set 88
config num-rngs 1
config sim-time-limit 10s
config repeat 500
config *.numWalkers 1
config *.enableDuplication true
config *.rc 700
config **.node[0].xCor 2933
config **.node[0].yCor 2747
config **.node[1].xCor 2919
config **.node[1].yCor 2817
config **.node[2].xCor 2910
config **.node[2].yCor 2861
config **.node[3].xCor 2429
config **.node[3].yCor 2851
config **.node[4].xCor 2908
config **.node[4].yCor 2714
config **.node[5].xCor 2606
config **.node[5].yCor 2722
config **.node[6].xCor 2575
config **.node[6].yCor 2753
config **.node[7].xCor 2654
config **.node[7].yCor 2513
config **.node[8].xCor 2773
config **.node[8].yCor 2580
config **.node[9].xCor 3043
config **.node[9].yCor 2780
config **.node[10].xCor 3020
config **.node[10].yCor 2813
config **.node[11].xCor 2599
config **.node[11].yCor 2300
config **.node[12].xCor 2917
config **.node[12].yCor 2698
config **.node[13].xCor 2625
config **.node[13].yCor 2641
config **.node[14].xCor 2604
config **.node[14].yCor 2790
config **.node[15].xCor 2786
config **.node[15].yCor 3082
config **.node[16].xCor 2603
config **.node[16].yCor 2802
config **.node[17].xCor 2637
config **.node[17].yCor 2869
config **.node[18].xCor 2675
config **.node[18].yCor 2955
config **.node[19].xCor 2845
config **.node[19].yCor 2937
config **.node[20].xCor 2860
config **.node[20].yCor 2888
config **.node[21].xCor 2843
config **.node[21].yCor 4158
config **.node[22].xCor 2852
config **.node[22].yCor 4017
config **.node[23].xCor 2892
config **.node[23].yCor 4961
config **.node[24].xCor 2313
config **.node[24].yCor 3993
config **.node[25].xCor 2891
config **.node[25].yCor 4959
config **.node[26].xCor 2370
config **.node[26].yCor 4050
config **.node[27].xCor 2788
config **.node[27].yCor 3958
config **.node[28].xCor 2819
config **.node[28].yCor 4428
config **.node[29].xCor 2790
config **.node[29].yCor 3761
config **.node[30].xCor 2809
config **.node[30].yCor 2908
config **.node[31].xCor 2919
config **.node[31].yCor 3575
config **.node[32].xCor 2946
config **.node[32].yCor 3466
config **.node[33].xCor 2911
config **.node[33].yCor 3453
config **.node[34].xCor 2370
config **.node[34].yCor 3656
config **.node[35].xCor 2438
config **.node[35].yCor 3738
config **.node[36].xCor 2737
config **.node[36].yCor 3570
config **.node[37].xCor 2921
config **.node[37].yCor 3698
config **.node[38].xCor 2907
config **.node[38].yCor 5197
config **.node[39].xCor 2860
config **.node[39].yCor 3852
config **.node[40].xCor 2927
config **.node[40].yCor 3684
config **.node[41].xCor 3023
config **.node[41].yCor 5313
config **.node[42].xCor 3220
config **.node[42].yCor 5811
config **.node[43].xCor 3432
config **.node[43].yCor 5715
config **.node[44].xCor 2754
config **.node[44].yCor 2463
config **.node[45].xCor 2646
config **.node[45].yCor 2673
config **.node[46].xCor 3051
config **.node[46].yCor 2792
config **.node[47].xCor 1666
config **.node[47].yCor 3697
config **.node[48].xCor 1662
config **.node[48].yCor 3694
config **.node[49].xCor 1664
config **.node[49].yCor 3667
config **.node[50].xCor 1660
config **.node[50].yCor 3664
config **.node[51].xCor 1710
config **.node[51].yCor 3573
config **.node[52].xCor 2082
config **.node[52].yCor 2650
config **.node[53].xCor 2086
config **.node[53].yCor 2657
config **.node[54].xCor 2257
config **.node[54].yCor 3232
config **.node[55].xCor 2258
config **.node[55].yCor 3225
config **.node[56].xCor 1926
config **.node[56].yCor 2570
config **.node[57].xCor 1926
config **.node[57].yCor 2576
config **.node[58].xCor 2104
config **.node[58].yCor 1758
config **.node[59].xCor 1957
config **.node[59].yCor 1826
config **.node[60].xCor 3473
config **.node[60].yCor 1523
config **.node[61].xCor 3335
config **.node[61].yCor 1726
config **.node[62].xCor 3478
config **.node[62].yCor 1517
config **.node[63].xCor 3386
config **.node[63].yCor 2119
config **.node[64].xCor 3474
config **.node[64].yCor 1762
config **.node[65].xCor 3797
config **.node[65].yCor 2099
config **.node[66].xCor 3642
config **.node[66].yCor 2136
config **.node[67].xCor 3481
config **.node[67].yCor 2334
config **.node[68].xCor 3088
config **.node[68].yCor 1505
config **.node[69].xCor 3037
config **.node[69].yCor 1693
config **.node[70].xCor 3026
config **.node[70].yCor 1700
config **.node[71].xCor 3019
config **.node[71].yCor 669
config **.node[72].xCor 3513
config **.node[72].yCor 1358
config **.node[73].xCor 3545
config **.node[73].yCor 1230
config **.node[74].xCor 4228
config **.node[74].yCor 4220
config **.node[75].xCor 3379
config **.node[75].yCor 1207
config **.node[76].xCor 3596
config **.node[76].yCor 963
config **.node[77].xCor 3637
config **.node[77].yCor 1188
config **.node[78].xCor 3759
config **.node[78].yCor 1030
config **.node[79].xCor 2918
config **.node[79].yCor 1455
config **.node[80].xCor 2711
config **.node[80].yCor 1297
config **.node[81].xCor 439
config **.node[81].yCor 1623
config **.node[82].xCor 2857
config **.node[82].yCor 3581
config **.node[83].xCor 2858
config **.node[83].yCor 3584
config **.node[84].xCor 2999
config **.node[84].yCor 2636
config **.node[85].xCor 2905
config **.node[85].yCor 2778
config **.node[86].xCor 2653
config **.node[86].yCor 2845
config **.node[87].xCor 2864
config **.node[87].yCor 2836
config **.node[88].xCor 2426
config **.node[88].yCor 2892
config **.node[89].xCor 2964
config **.node[89].yCor 2804
config **.node[90].xCor 2586
config **.node[90].yCor 3135
config **.node[91].xCor 2864
config **.node[91].yCor 2980
config **.node[92].xCor 2527
config **.node[92].yCor 3219
config **.node[93].xCor 2863
config **.node[93].yCor 3142
config **.node[94].xCor 2485
config **.node[94].yCor 3269
config **.node[95].xCor 2653
config **.node[95].yCor 1065
config **.node[96].xCor 4062
config **.node[96].yCor 400
config **.node[97].xCor 5762
config **.node[97].yCor 3023
config **.node[98].xCor 1414
config **.node[98].yCor 3461
config **.node[99].xCor 2911
config **.node[99].yCor 1737
config **.node[100].xCor 2595
config **.node[100].yCor 2299
config **.node[101].xCor 2702
config **.node[101].yCor 3419
config **.node[102].xCor 2813
config **.node[102].yCor 3307
config **.node[103].xCor 2638
config **.node[103].yCor 2258
config **.node[104].xCor 2590
config **.node[104].yCor 3125
config **.node[105].xCor 1856
config **.node[105].yCor 2990
config **.node[106].xCor 1894
config **.node[106].yCor 2239
config **.node[107].xCor 383
config **.node[107].yCor 1251
config **.node[108].xCor 3447
config **.node[108].yCor 5489
config **.node[109].xCor 3450
config **.node[109].yCor 5697
config **.node[110].xCor 2719
config **.node[110].yCor 1920
config **.node[111].xCor 2085
config **.node[111].yCor 2389
config **.node[112].xCor 1910
config **.node[112].yCor 2548
config **.node[113].xCor 2069
config **.node[113].yCor 2050
config **.node[114].xCor 2184
config **.node[114].yCor 2209
config **.node[115].xCor 2278
config **.node[115].yCor 2390
config **.node[116].xCor 2249
config **.node[116].yCor 2299
config **.node[117].xCor 2356
config **.node[117].yCor 2303
config **.node[118].xCor 2192
config **.node[118].yCor 2475
config **.node[119].xCor 1720
config **.node[119].yCor 2911
config **.node[120].xCor 2400
config **.node[120].yCor 2887
config **.node[121].xCor 3344
config **.node[121].yCor 1890
config **.node[122].xCor 3136
config **.node[122].yCor 2418
config **.node[123].xCor 3243
config **.node[123].yCor 2525
config **.node[124].xCor 2396
config **.node[124].yCor 1267
config **.node[125].xCor 467
config **.node[125].yCor 1875
config **.node[126].xCor 3506
config **.node[126].yCor 1221
config **.node[127].xCor 1034
config **.node[127].yCor 1474
config **.node[128].xCor 2908
config **.node[128].yCor 1784
config **.node[129].xCor 2876
config **.node[129].yCor 1761
config **.node[130].xCor 2849
config **.node[130].yCor 1795
config **.node[131].xCor 3029
config **.node[131].yCor 1859
config **.node[132].xCor 2924
config **.node[132].yCor 1848
config **.node[133].xCor 3493
config **.node[133].yCor 1559
config **.node[134].xCor 2760
config **.node[134].yCor 1761
config **.node[135].xCor 1644
config **.node[135].yCor 3755
config **.node[136].xCor 1463
config **.node[136].yCor 3432
config **.node[137].xCor 2595
config **.node[137].yCor 2849
config **.node[138].xCor 2581
config **.node[138].yCor 2867
config **.node[139].xCor 2524
config **.node[139].yCor 2911
config **.node[140].xCor 2570
config **.node[140].yCor 2924
config **.node[141].xCor 2676
config **.node[141].yCor 2890
config **.node[142].xCor 2666
config **.node[142].yCor 2876
config **.node[143].xCor 3735
config **.node[143].yCor 1726
config **.node[144].xCor 1637
config **.node[144].yCor 3438

vector 0 TaxiNetwork.node[52] visitedPerTimestep ETV
vector 1 TaxiNetwork.node[117] visitedPerTimestep ETV
vector 2 TaxiNetwork.node[53] visitedPerTimestep ETV
vector 3 TaxiNetwork.node[90] visitedPerTimestep ETV
vector 4 TaxiNetwork.node[82] visitedPerTimestep ETV
vector 5 TaxiNetwork.node[102] visitedPerTimestep ETV
vector 6 TaxiNetwork.node[55] visitedPerTimestep ETV
vector 7 TaxiNetwork.node[15] visitedPerTimestep ETV
vector 8 TaxiNetwork.node[94] visitedPerTimestep ETV
vector 9 TaxiNetwork.node[140] visitedPerTimestep ETV
vector 10 TaxiNetwork.node[86] visitedPerTimestep ETV
vector 11 TaxiNetwork.node[87] visitedPerTimestep ETV
vector 12 TaxiNetwork.node[11] visitedPerTimestep ETV
vector 13 TaxiNetwork.node[4] visitedPerTimestep ETV
vector 14 TaxiNetwork.node[8] visitedPerTimestep ETV
vector 15 TaxiNetwork.node[84] visitedPerTimestep ETV
vector 16 TaxiNetwork.node[63] visitedPerTimestep ETV
vector 17 TaxiNetwork.node[68] visitedPerTimestep ETV
vector 18 TaxiNetwork.node[72] visitedPerTimestep ETV
vector 19 TaxiNetwork.node[70] visitedPerTimestep ETV
vector 20 TaxiNetwork.node[80] visitedPerTimestep ETV
vector 21 TaxiNetwork.node[95] visitedPerTimestep ETV
vector 22 TaxiNetwork.node[131] visitedPerTimestep ETV
vector 23 TaxiNetwork.node[44] visitedPerTimestep ETV
vector 24 TaxiNetwork.node[128] visitedPerTimestep ETV
vector 25 TaxiNetwork.node[69] visitedPerTimestep ETV
vector 26 TaxiNetwork.node[110] visitedPerTimestep ETV
vector 27 TaxiNetwork.node[99] visitedPerTimestep ETV
vector 28 TaxiNetwork.node[121] visitedPerTimestep ETV
vector 29 TaxiNetwork.node[5] visitedPerTimestep ETV
vector 30 TaxiNetwork.node[138] visitedPerTimestep ETV
vector 31 TaxiNetwork.node[30] visitedPerTimestep ETV
vector 32 TaxiNetwork.node[3] visitedPerTimestep ETV
vector 33 TaxiNetwork.node[133] visitedPerTimestep ETV
vector 34 TaxiNetwork.node[78] visitedPerTimestep ETV
vector 35 TaxiNetwork.node[73] visitedPerTimestep ETV
vector 36 TaxiNetwork.node[79] visitedPerTimestep ETV
vector 37 TaxiNetwork.node[130] visitedPerTimestep ETV
vector 38 TaxiNetwork.node[129] visitedPerTimestep ETV
vector 39 TaxiNetwork.node[124] visitedPerTimestep ETV
vector 40 TaxiNetwork.node[62] visitedPerTimestep ETV
vector 41 TaxiNetwork.node[60] visitedPerTimestep ETV
vector 42 TaxiNetwork.node[61] visitedPerTimestep ETV
vector 43 TaxiNetwork.node[132] visitedPerTimestep ETV
vector 44 TaxiNetwork.node[127] visitedPerTimestep ETV
vector 45 TaxiNetwork.node[143] visitedPerTimestep ETV
vector 46 TaxiNetwork.node[134] visitedPerTimestep ETV
vector 47 TaxiNetwork.node[122] visitedPerTimestep ETV
vector 48 TaxiNetwork.node[36] visitedPerTimestep ETV
vector 49 TaxiNetwork.node[101] visitedPerTimestep ETV
vector 50 TaxiNetwork.node[6] visitedPerTimestep ETV
vector 51 TaxiNetwork.node[111] visitedPerTimestep ETV
vector 52 TaxiNetwork.node[105] visitedPerTimestep ETV
vector 53 TaxiNetwork.node[136] visitedPerTimestep ETV
vector 54 TaxiNetwork.node[135] visitedPerTimestep ETV
vector 55 TaxiNetwork.node[49] visitedPerTimestep ETV
vector 56 TaxiNetwork.node[144] visitedPerTimestep ETV
vector 57 TaxiNetwork.node[47] visitedPerTimestep ETV
vector 58 TaxiNetwork.node[50] visitedPerTimestep ETV
vector 59 TaxiNetwork.node[51] visitedPerTimestep ETV
vector 60 TaxiNetwork.node[141] visitedPerTimestep ETV
vector 61 TaxiNetwork.node[100] visitedPerTimestep ETV
vector 62 TaxiNetwork.node[137] visitedPerTimestep ETV
vector 63 TaxiNetwork.node[2] visitedPerTimestep ETV
vector 64 TaxiNetwork.node[12] visitedPerTimestep ETV
vector 65 TaxiNetwork.node[13] visitedPerTimestep ETV
vector 66 TaxiNetwork.node[9] visitedPerTimestep ETV
vector 67 TaxiNetwork.node[67] visitedPerTimestep ETV
vector 68 TaxiNetwork.node[10] visitedPerTimestep ETV
vector 69 TaxiNetwork.node[46] visitedPerTimestep ETV
vector 70 TaxiNetwork.node[104] visitedPerTimestep ETV
vector 71 TaxiNetwork.node[16] visitedPerTimestep ETV
vector 72 TaxiNetwork.node[0] visitedPerTimestep ETV
vector 73 TaxiNetwork.node[17] visitedPerTimestep ETV
vector 74 TaxiNetwork.node[142] visitedPerTimestep ETV
vector 75 TaxiNetwork.node[1] visitedPerTimestep ETV
vector 76 TaxiNetwork.node[7] visitedPerTimestep ETV
vector 77 TaxiNetwork.node[139] visitedPerTimestep ETV
vector 78 TaxiNetwork.node[118] visitedPerTimestep ETV
vector 79 TaxiNetwork.node[85] visitedPerTimestep ETV
vector 80 TaxiNetwork.node[88] visitedPerTimestep ETV
vector 81 TaxiNetwork.node[81] visitedPerTimestep ETV
vector 82 TaxiNetwork.node[107] visitedPerTimestep ETV
vector 83 TaxiNetwork.node[64] visitedPerTimestep ETV
vector 84 TaxiNetwork.node[75] visitedPerTimestep ETV
vector 85 TaxiNetwork.node[71] visitedPerTimestep ETV
vector 86 TaxiNetwork.node[91] visitedPerTimestep ETV
vector 87 TaxiNetwork.node[18] visitedPerTimestep ETV
vector 88 TaxiNetwork.node[93] visitedPerTimestep ETV
vector 89 TaxiNetwork.node[20] visitedPerTimestep ETV
vector 90 TaxiNetwork.node[126] visitedPerTimestep ETV
vector 91 TaxiNetwork.node[89] visitedPerTimestep ETV
vector 92 TaxiNetwork.node[14] visitedPerTimestep ETV
vector 93 TaxiNetwork.node[56] visitedPerTimestep ETV
vector 94 TaxiNetwork.node[114] visitedPerTimestep ETV
vector 95 TaxiNetwork.node[33] visitedPerTimestep ETV
vector 96 TaxiNetwork.node[45] visitedPerTimestep ETV
vector 97 TaxiNetwork.node[57] visitedPerTimestep ETV
vector 98 TaxiNetwork.node[116] visitedPerTimestep ETV
vector 99 TaxiNetwork.node[103] visitedPerTimestep ETV
vector 100 TaxiNetwork.node[106] visitedPerTimestep ETV
vector 101 TaxiNetwork.node[113] visitedPerTimestep ETV
vector 102 TaxiNetwork.node[120] visitedPerTimestep ETV
vector 103 TaxiNetwork.node[92] visitedPerTimestep ETV
vector 104 TaxiNetwork.node[54] visitedPerTimestep ETV
vector 105 TaxiNetwork.node[119] visitedPerTimestep ETV
vector 106 TaxiNetwork.node[112] visitedPerTimestep ETV
vector 107 TaxiNetwork.node[19] visitedPerTimestep ETV
vector 108 TaxiNetwork.node[32] visitedPerTimestep ETV
vector 109 TaxiNetwork.node[39] visitedPerTimestep ETV
vector 110 TaxiNetwork.node[37] visitedPerTimestep ETV
vector 111 TaxiNetwork.node[83] visitedPerTimestep ETV
vector 112 TaxiNetwork.node[123] visitedPerTimestep ETV
vector 113 TaxiNetwork.node[115] visitedPerTimestep ETV
vector 114 TaxiNetwork.node[29] visitedPerTimestep ETV
vector 115 TaxiNetwork.node[26] visitedPerTimestep ETV
vector 116 TaxiNetwork.node[21] visitedPerTimestep ETV
vector 117 TaxiNetwork.node[74] visitedPerTimestep ETV
vector 118 TaxiNetwork.node[109] visitedPerTimestep ETV
vector 119 TaxiNetwork.node[27] visitedPerTimestep ETV
vector 120 TaxiNetwork.node[59] visitedPerTimestep ETV
vector 121 TaxiNetwork.node[35] visitedPerTimestep ETV
vector 122 TaxiNetwork.node[31] visitedPerTimestep ETV
vector 123 TaxiNetwork.node[22] visitedPerTimestep ETV
vector 124 TaxiNetwork.node[65] visitedPerTimestep ETV
vector 125 TaxiNetwork.node[76] visitedPerTimestep ETV
vector 126 TaxiNetwork.node[58] visitedPerTimestep ETV
vector 127 TaxiNetwork.node[77] visitedPerTimestep ETV
vector 128 TaxiNetwork.node[40] visitedPerTimestep ETV
vector 129 TaxiNetwork.node[34] visitedPerTimestep ETV
vector 130 TaxiNetwork.node[24] visitedPerTimestep ETV
vector 131 TaxiNetwork.node[48] visitedPerTimestep ETV
vector 132 TaxiNetwork.node[98] visitedPerTimestep ETV
vector 133 TaxiNetwork.node[28] visitedPerTimestep ETV
vector 134 TaxiNetwork.node[125] visitedPerTimestep ETV
vector 135 TaxiNetwork.node[66] visitedPerTimestep ETV
0	16473 439 1 7848 0 0 35 1 144 4484 596342
1	16912 390 2 7336 0 0 31 2 143 3974 529152
2	17302 378 3 7360 0 0 30 3 143 3893 523487
3	17680 527 4 8016 0 0 42 4 144 5326 701920
4	18207 212 5 7544 0 0 17 5 144 2110 280428
5	18419 505 6 7304 0 0 40 6 143 5227 701747
6	18924 447 7 7536 0 0 36 7 144 4598 611152
7	19371 373 8 7208 0 0 30 8 143 3717 483553
8	19744 437 9 7072 0 0 35 9 143 4385 572917
9	20181 349 10 7904 0 0 28 10 144 3486 455078
10	20530 544 11 6996 0 0 40 11 143 5113 672351
11	21074 541 12 7984 0 0 40 12 144 4993 649623
12	21615 531 13 7944 0 0 39 13 144 4870 637480
13	22146 582 14 8176 0 0 43 14 144 5389 703785
14	22728 607 15 8200 0 0 45 15 144 5585 726311
15	23335 506 16 6680 0 0 37 16 143 4745 633959
16	23841 168 17 6416 0 0 13 17 143 1342 166770
17	24009 160 18 6336 0 0 12 18 143 1471 195073
18	24169 104 19 6296 0 0 8 19 143 874 115096
19	24273 276 20 6412 0 0 21 20 143 2374 307536
20	24549 188 21 6352 0 0 15 21 143 1426 168520
21	24737 48 22 953 0 0 4 22 131 325 32437
22	24785 211 24 6356 0 0 16 23 143 1801 234775
23	24996 488 25 6936 0 0 36 24 143 4532 592282
24	25484 211 26 7968 0 0 16 25 144 1783 225547
25	25695 172 27 5876 0 0 13 26 143 1597 209051
26	25867 244 28 8208 0 0 18 27 144 2296 304842
27	26111 211 29 6328 0 0 16 28 143 1879 240465
28	26322 128 30 6360 0 0 10 29 143 1028 127092
29	26450 350 35 6844 0 0 26 30 143 3219 413225
30	26800 571 36 8192 0 0 42 31 144 5488 732512
31	27371 688 37 7512 0 0 51 32 144 6422 831912
32	28059 501 38 6732 0 0 37 33 143 4707 613297
33	28560 211 43 7960 0 0 16 34 144 1869 242863
34	28771 107 44 6380 0 0 8 35 143 959 125443
35	28878 116 45 6376 0 0 9 36 143 984 117922
36	28994 161 48 6348 0 0 12 37 143 1518 201174
37	29155 286 49 8232 0 0 22 38 145 2446 306352
38	29441 210 55 6288 0 0 16 39 143 1829 227413
39	29651 146 56 8224 0 0 11 40 144 1349 175661
40	29797 229 58 6368 0 0 17 41 143 2118 273436
41	30026 204 59 6340 0 0 15 42 143 1940 259740
42	30230 264 62 6404 0 0 20 43 143 2403 307319
43	30494 320 65 6344 0 0 24 44 143 2946 382366
44	30814 116 66 5860 0 0 9 45 143 975 115427
45	30930 121 69 6396 0 0 9 46 143 1102 143580
46	31051 121 75 5856 0 0 9 47 143 1100 143322
47	31172 413 78 7976 0 0 30 48 144 3988 538330
48	31585 283 82 7784 0 0 21 49 144 2738 364574
49	31868 407 83 7624 0 0 30 50 144 3899 515755
50	32275 693 85 7920 0 0 51 51 144 6536 855844
51	32968 323 86 6804 0 0 24 52 143 3007 385927
52	33291 204 87 8112 0 0 15 53 144 1965 264559
53	33495 119 88 7720 0 0 9 54 144 1092 143514
54	33614 137 89 7680 0 0 10 55 144 1324 182120
55	33751 196 90 7728 0 0 15 56 144 1764 227166
56	33947 147 91 7640 0 0 11 57 144 1375 183057
57	34094 81 92 7712 0 0 6 58 144 775 106183
58	34175 78 94 7024 0 0 6 59 143 679 85733
59	34253 179 100 7736 0 0 13 60 144 1737 238295
60	34432 629 102 7872 0 0 46 61 144 6097 819077
61	35061 705 105 7864 0 0 52 62 144 6630 862778
62	35766 708 106 8040 0 0 52 63 144 6744 888854
63	36474 519 107 8064 0 0 38 64 144 4993 663455
64	36993 522 109 6644 0 0 38 65 143 5001 665967
65	37515 477 112 8144 0 0 35 66 144 4589 611273
66	37992 493 113 7880 0 0 36 67 144 4684 617124
67	38485 172 114 3968 0 0 13 68 136 1565 194153
68	38657 449 115 6716 0 0 33 69 143 4274 562524
69	39106 474 116 6940 0 0 35 70 143 4516 593514
70	39580 551 117 7928 0 0 40 71 144 5288 707412
71	40131 560 120 6908 0 0 41 72 143 5343 707401
72	40691 519 124 6872 0 0 38 73 143 4950 653206
73	41210 519 127 7088 0 0 38 74 143 4914 642230
74	41729 566 129 7312 0 0 41 75 143 5436 726644
75	42295 535 132 7832 0 0 39 76 144 5157 688451
76	42830 617 135 8160 0 0 45 77 144 5904 781822
77	43447 653 137 8120 0 0 48 78 144 6243 820675
78	44100 383 138 8104 0 0 28 79 144 3693 492061
79	44483 496 140 8184 0 0 36 80 144 4783 642311
80	44979 565 142 7368 0 0 42 81 143 5262 670742
81	45544 124 152 3860 0 0 9 82 136 1167 153879
82	45668 82 153 3856 0 0 6 83 136 761 98827
83	45750 216 156 6300 0 0 16 84 143 2058 269150
84	45966 155 162 5400 0 0 12 85 143 1421 173763
85	46121 78 163 6320 0 0 6 86 143 707 86503
86	46199 329 178 7440 0 0 24 87 144 3201 430051
87	46528 600 179 8128 0 0 44 88 144 5813 773853
88	47128 741 181 8072 0 0 54 89 144 7130 949134
89	47869 618 182 8032 0 0 45 90 144 6003 805253
90	48487 150 195 6400 0 0 11 91 143 1467 197987
91	48637 559 204 6772 0 0 41 92 143 5362 707214
92	49196 506 215 7896 0 0 37 93 144 4804 630734
93	49702 191 220 7400 0 0 14 94 144 1866 250920
94	49893 230 221 5520 0 0 17 95 143 2179 282577
95	50123 453 233 7448 0 0 33 96 144 4425 596245
96	50576 614 235 8096 0 0 45 97 144 5915 783323
97	51190 191 237 6808 0 0 14 98 143 1813 237971
98	51381 368 239 6540 0 0 27 99 143 3540 466934
99	51749 518 240 8168 0 0 38 100 144 4912 641360
100	52267 221 244 6812 0 0 15 101 143 1978 264018
101	52488 132 246 7408 0 0 9 102 144 1178 155414
102	52620 743 273 6744 0 0 50 103 143 6736 909582
103	53363 484 282 6616 0 0 33 104 143 4345 574621
104	53847 308 286 7632 0 0 21 105 144 2802 375258
105	54155 148 309 7056 0 0 10 106 143 1364 187280
106	54303 161 311 6500 0 0 11 107 143 1464 195876
107	54464 532 357 8152 0 0 36 108 144 4902 669700
108	54996 395 370 7272 0 0 27 109 143 3580 476494
109	55391 143 371 7456 0 0 10 110 144 1265 161015
110	55534 220 373 7808 0 0 15 111 144 1989 265161
111	55754 367 374 7168 0 0 25 112 143 3311 439907
112	56121 355 384 7320 0 0 24 113 143 3223 434007
113	56476 414 389 7424 0 0 28 114 144 3718 495338
114	56890 176 398 7568 0 0 12 115 144 1591 211591
115	57066 88 402 7600 0 0 6 116 144 801 107447
116	57154 191 404 7608 0 0 13 117 144 1746 235108
117	57345 73 408 4924 0 0 5 118 143 648 84448
118	57418 14 409 409 0 0 1 119 119 119 14161
119	57432 173 412 7584 0 0 12 120 144 1583 209139
120	57605 134 468 7416 0 0 9 121 144 1228 168024
121	57739 236 492 7192 0 0 16 122 143 2165 293663
122	57975 237 495 7800 0 0 16 123 144 2175 296199
123	58212 118 496 7768 0 0 8 124 144 1089 148597
124	58330 87 504 6392 0 0 6 125 143 788 103686
125	58417 87 569 6316 0 0 6 126 143 804 108036
126	58504 104 651 3416 0 0 7 127 135 929 123343
127	58608 103 669 6372 0 0 7 128 143 966 133566
128	58711 162 680 8008 0 0 11 129 144 1514 208866
129	58873 205 681 7792 0 0 14 130 144 1908 260484
130	59078 74 863 7776 0 0 5 131 144 705 99531
131	59152 90 1254 7704 0 0 6 132 144 827 114171
132	59242 90 1264 7048 0 0 6 133 143 841 117981
133	59332 30 2072 7592 0 0 2 134 144 278 38692
134	59362 60 3816 3848 0 0 4 136 136 544 73984
135	59422 15 5332 5332 0 0 1 143 143 143 20449

