version 3
run General-156-20250917-22:37:08-66213
attr configname General
attr datetime 20250917-22:37:08
attr datetimef 20250917-223708
attr experiment General
attr inifile omnetpp.ini
attr iterationvars ""
attr iterationvarsd ""
attr iterationvarsf ""
attr measurement ""
attr network RGG
attr processid 66213
attr repetition 156
attr replication #156
attr resultdir results
attr runnumber 156
attr seedset 156
config network RGG
config seed-set 156
config num-rngs 1
config sim-time-limit 10s
config repeat 500
config **.node[*].xCor "uniform(0.0, 1.0, 0)"
config **.node[*].yCor "uniform(0.0, 1.0, 0)"
config *.numWalkers 1
config *.numNodes 100
config *.enableDuplication true
config *.rc 0.25

par RGG.node[0].port$o[0].channel typename "\"ned.IdealChannel\""
par RGG.node[12].port$o[0].channel typename "\"ned.IdealChannel\""
par RGG.node[0].port$o[1].channel typename "\"ned.IdealChannel\""
par RGG.node[17].port$o[0].channel typename "\"ned.IdealChannel\""
par RGG.node[0].port$o[2].channel typename "\"ned.IdealChannel\""
par RGG.node[19].port$o[0].channel typename "\"ned.IdealChannel\""
par RGG.node[0].port$o[3].channel typename "\"ned.IdealChannel\""
par RGG.node[21].port$o[0].channel typename "\"ned.IdealChannel\""
par RGG.node[0].port$o[4].channel typename "\"ned.IdealChannel\""
par RGG.node[22].port$o[0].channel typename "\"ned.IdealChannel\""
par RGG.node[0].port$o[5].channel typename "\"ned.IdealChannel\""
par RGG.node[29].port$o[0].channel typename "\"ned.IdealChannel\""
par RGG.node[0].port$o[6].channel typename "\"ned.IdealChannel\""
par RGG.node[33].port$o[0].channel typename "\"ned.IdealChannel\""
par RGG.node[0].port$o[7].channel typename "\"ned.IdealChannel\""
par RGG.node[36].port$o[0].channel typename "\"ned.IdealChannel\""
par RGG.node[0].port$o[8].channel typename "\"ned.IdealChannel\""
par RGG.node[38].port$o[0].channel typename "\"ned.IdealChannel\""
par RGG.node[0].port$o[9].channel typename "\"ned.IdealChannel\""
par RGG.node[40].port$o[0].channel typename "\"ned.IdealChannel\""
par RGG.node[0].port$o[10].channel typename "\"ned.IdealChannel\""
par RGG.node[48].port$o[0].channel typename "\"ned.IdealChannel\""
par RGG.node[0].port$o[11].channel typename "\"ned.IdealChannel\""
par RGG.node[60].port$o[0].channel typename "\"ned.IdealChannel\""
par RGG.node[0].port$o[12].channel typename "\"ned.IdealChannel\""
par RGG.node[65].port$o[0].channel typename "\"ned.IdealChannel\""
par RGG.node[0].port$o[13].channel typename "\"ned.IdealChannel\""
par RGG.node[70].port$o[0].channel typename "\"ned.IdealChannel\""
par RGG.node[0].port$o[14].channel typename "\"ned.IdealChannel\""
par RGG.node[72].port$o[0].channel typename "\"ned.IdealChannel\""
par RGG.node[0].port$o[15].channel typename "\"ned.IdealChannel\""
par RGG.node[73].port$o[0].channel typename "\"ned.IdealChannel\""
par RGG.node[0].port$o[16].channel typename "\"ned.IdealChannel\""
par RGG.node[78].port$o[0].channel typename "\"ned.IdealChannel\""
par RGG.node[0].port$o[17].channel typename "\"ned.IdealChannel\""
par RGG.node[79].port$o[0].channel typename "\"ned.IdealChannel\""
par RGG.node[0].port$o[18].channel typename "\"ned.IdealChannel\""
par RGG.node[81].port$o[0].channel typename "\"ned.IdealChannel\""
par RGG.node[0].port$o[19].channel typename "\"ned.IdealChannel\""
par RGG.node[93].port$o[0].channel typename "\"ned.IdealChannel\""
par RGG.node[1].port$o[0].channel typename "\"ned.IdealChannel\""
par RGG.node[4].port$o[0].channel typename "\"ned.IdealChannel\""
par RGG.node[1].port$o[1].channel typename "\"ned.IdealChannel\""
par RGG.node[20].port$o[0].channel typename "\"ned.IdealChannel\""
par RGG.node[1].port$o[2].channel typename "\"ned.IdealChannel\""
par RGG.node[27].port$o[0].channel typename "\"ned.IdealChannel\""
par RGG.node[1].port$o[3].channel typename "\"ned.IdealChannel\""
par RGG.node[28].port$o[0].channel typename "\"ned.IdealChannel\""
par RGG.node[1].port$o[4].channel typename "\"ned.IdealChannel\""
par RGG.node[34].port$o[0].channel typename "\"ned.IdealChannel\""
par RGG.node[1].port$o[5].channel typename "\"ned.IdealChannel\""
par RGG.node[42].port$o[0].channel typename "\"ned.IdealChannel\""
par RGG.node[1].port$o[6].channel typename "\"ned.IdealChannel\""
par RGG.node[49].port$o[0].channel typename "\"ned.IdealChannel\""
par RGG.node[1].port$o[7].channel typename "\"ned.IdealChannel\""
par RGG.node[56].port$o[0].channel typename "\"ned.IdealChannel\""
par RGG.node[1].port$o[8].channel typename "\"ned.IdealChannel\""
par RGG.node[57].port$o[0].channel typename "\"ned.IdealChannel\""
par RGG.node[1].port$o[9].channel typename "\"ned.IdealChannel\""
par RGG.node[59].port$o[0].channel typename "\"ned.IdealChannel\""
par RGG.node[1].port$o[10].channel typename "\"ned.IdealChannel\""
par RGG.node[68].port$o[0].channel typename "\"ned.IdealChannel\""
par RGG.node[1].port$o[11].channel typename "\"ned.IdealChannel\""
par RGG.node[85].port$o[0].channel typename "\"ned.IdealChannel\""
par RGG.node[1].port$o[12].channel typename "\"ned.IdealChannel\""
par RGG.node[87].port$o[0].channel typename "\"ned.IdealChannel\""
par RGG.node[2].port$o[0].channel typename "\"ned.IdealChannel\""
par RGG.node[9].port$o[0].channel typename "\"ned.IdealChannel\""
par RGG.node[2].port$o[1].channel typename "\"ned.IdealChannel\""
par RGG.node[10].port$o[0].channel typename "\"ned.IdealChannel\""
par RGG.node[2].port$o[2].channel typename "\"ned.IdealChannel\""
par RGG.node[13].port$o[0].channel typename "\"ned.IdealChannel\""
par RGG.node[2].port$o[3].channel typename "\"ned.IdealChannel\""
par RGG.node[23].port$o[0].channel typename "\"ned.IdealChannel\""
par RGG.node[2].port$o[4].channel typename "\"ned.IdealChannel\""
par RGG.node[25].port$o[0].channel typename "\"ned.IdealChannel\""
par RGG.node[2].port$o[5].channel typename "\"ned.IdealChannel\""
par RGG.node[26].port$o[0].channel typename "\"ned.IdealChannel\""
par RGG.node[2].port$o[6].channel typename "\"ned.IdealChannel\""
par RGG.node[46].port$o[0].channel typename "\"ned.IdealChannel\""
par RGG.node[2].port$o[7].channel typename "\"ned.IdealChannel\""
par RGG.node[52].port$o[0].channel typename "\"ned.IdealChannel\""
par RGG.node[2].port$o[8].channel typename "\"ned.IdealChannel\""
par RGG.node[80].port$o[0].channel typename "\"ned.IdealChannel\""
par RGG.node[2].port$o[9].channel typename "\"ned.IdealChannel\""
par RGG.node[84].port$o[0].channel typename "\"ned.IdealChannel\""
par RGG.node[2].port$o[10].channel typename "\"ned.IdealChannel\""
par RGG.node[99].port$o[0].channel typename "\"ned.IdealChannel\""
par RGG.node[3].port$o[0].channel typename "\"ned.IdealChannel\""
par RGG.node[8].port$o[0].channel typename "\"ned.IdealChannel\""
par RGG.node[3].port$o[1].channel typename "\"ned.IdealChannel\""
par RGG.node[10].port$o[1].channel typename "\"ned.IdealChannel\""
par RGG.node[3].port$o[2].channel typename "\"ned.IdealChannel\""
par RGG.node[11].port$o[0].channel typename "\"ned.IdealChannel\""
par RGG.node[3].port$o[3].channel typename "\"ned.IdealChannel\""
par RGG.node[19].port$o[1].channel typename "\"ned.IdealChannel\""
par RGG.node[3].port$o[4].channel typename "\"ned.IdealChannel\""
par RGG.node[21].port$o[1].channel typename "\"ned.IdealChannel\""
par RGG.node[3].port$o[5].channel typename "\"ned.IdealChannel\""
par RGG.node[22].port$o[1].channel typename "\"ned.IdealChannel\""
par RGG.node[3].port$o[6].channel typename "\"ned.IdealChannel\""
par RGG.node[24].port$o[0].channel typename "\"ned.IdealChannel\""
par RGG.node[3].port$o[7].channel typename "\"ned.IdealChannel\""
par RGG.node[31].port$o[0].channel typename "\"ned.IdealChannel\""
par RGG.node[3].port$o[8].channel typename "\"ned.IdealChannel\""
par RGG.node[36].port$o[1].channel typename "\"ned.IdealChannel\""
par RGG.node[3].port$o[9].channel typename "\"ned.IdealChannel\""
par RGG.node[42].port$o[1].channel typename "\"ned.IdealChannel\""
par RGG.node[3].port$o[10].channel typename "\"ned.IdealChannel\""
par RGG.node[51].port$o[0].channel typename "\"ned.IdealChannel\""
par RGG.node[3].port$o[11].channel typename "\"ned.IdealChannel\""
par RGG.node[53].port$o[0].channel typename "\"ned.IdealChannel\""
par RGG.node[3].port$o[12].channel typename "\"ned.IdealChannel\""
par RGG.node[54].port$o[0].channel typename "\"ned.IdealChannel\""
par RGG.node[3].port$o[13].channel typename "\"ned.IdealChannel\""
par RGG.node[58].port$o[0].channel typename "\"ned.IdealChannel\""
par RGG.node[3].port$o[14].channel typename "\"ned.IdealChannel\""
par RGG.node[78].port$o[1].channel typename "\"ned.IdealChannel\""
par RGG.node[3].port$o[15].channel typename "\"ned.IdealChannel\""
par RGG.node[79].port$o[1].channel typename "\"ned.IdealChannel\""
par RGG.node[3].port$o[16].channel typename "\"ned.IdealChannel\""
par RGG.node[81].port$o[1].channel typename "\"ned.IdealChannel\""
par RGG.node[3].port$o[17].channel typename "\"ned.IdealChannel\""
par RGG.node[82].port$o[0].channel typename "\"ned.IdealChannel\""
par RGG.node[3].port$o[18].channel typename "\"ned.IdealChannel\""
par RGG.node[87].port$o[1].channel typename "\"ned.IdealChannel\""
par RGG.node[3].port$o[19].channel typename "\"ned.IdealChannel\""
par RGG.node[90].port$o[0].channel typename "\"ned.IdealChannel\""
par RGG.node[3].port$o[20].channel typename "\"ned.IdealChannel\""
par RGG.node[93].port$o[1].channel typename "\"ned.IdealChannel\""
par RGG.node[3].port$o[21].channel typename "\"ned.IdealChannel\""
par RGG.node[95].port$o[0].channel typename "\"ned.IdealChannel\""
par RGG.node[3].port$o[22].channel typename "\"ned.IdealChannel\""
par RGG.node[97].port$o[0].channel typename "\"ned.IdealChannel\""
par RGG.node[3].port$o[23].channel typename "\"ned.IdealChannel\""
par RGG.node[98].port$o[0].channel typename "\"ned.IdealChannel\""
par RGG.node[4].port$o[1].channel typename "\"ned.IdealChannel\""
par RGG.node[11].port$o[1].channel typename "\"ned.IdealChannel\""
par RGG.node[4].port$o[2].channel typename "\"ned.IdealChannel\""
par RGG.node[17].port$o[1].channel typename "\"ned.IdealChannel\""
par RGG.node[4].port$o[3].channel typename "\"ned.IdealChannel\""
par RGG.node[20].port$o[1].channel typename "\"ned.IdealChannel\""
par RGG.node[4].port$o[4].channel typename "\"ned.IdealChannel\""
par RGG.node[22].port$o[2].channel typename "\"ned.IdealChannel\""
par RGG.node[4].port$o[5].channel typename "\"ned.IdealChannel\""
par RGG.node[27].port$o[1].channel typename "\"ned.IdealChannel\""
par RGG.node[4].port$o[6].channel typename "\"ned.IdealChannel\""
par RGG.node[34].port$o[1].channel typename "\"ned.IdealChannel\""
par RGG.node[4].port$o[7].channel typename "\"ned.IdealChannel\""
par RGG.node[43].port$o[0].channel typename "\"ned.IdealChannel\""
par RGG.node[4].port$o[8].channel typename "\"ned.IdealChannel\""
par RGG.node[44].port$o[0].channel typename "\"ned.IdealChannel\""
par RGG.node[4].port$o[9].channel typename "\"ned.IdealChannel\""
par RGG.node[49].port$o[1].channel typename "\"ned.IdealChannel\""
par RGG.node[4].port$o[10].channel typename "\"ned.IdealChannel\""
par RGG.node[56].port$o[1].channel typename "\"ned.IdealChannel\""
par RGG.node[4].port$o[11].channel typename "\"ned.IdealChannel\""
par RGG.node[57].port$o[1].channel typename "\"ned.IdealChannel\""
par RGG.node[4].port$o[12].channel typename "\"ned.IdealChannel\""
par RGG.node[59].port$o[1].channel typename "\"ned.IdealChannel\""
par RGG.node[4].port$o[13].channel typename "\"ned.IdealChannel\""
par RGG.node[60].port$o[1].channel typename "\"ned.IdealChannel\""
par RGG.node[4].port$o[14].channel typename "\"ned.IdealChannel\""
par RGG.node[65].port$o[1].channel typename "\"ned.IdealChannel\""
par RGG.node[4].port$o[15].channel typename "\"ned.IdealChannel\""
par RGG.node[79].port$o[2].channel typename "\"ned.IdealChannel\""
par RGG.node[4].port$o[16].channel typename "\"ned.IdealChannel\""
par RGG.node[85].port$o[1].channel typename "\"ned.IdealChannel\""
par RGG.node[4].port$o[17].channel typename "\"ned.IdealChannel\""
par RGG.node[87].port$o[2].channel typename "\"ned.IdealChannel\""
par RGG.node[4].port$o[18].channel typename "\"ned.IdealChannel\""
par RGG.node[95].port$o[1].channel typename "\"ned.IdealChannel\""
par RGG.node[5].port$o[0].channel typename "\"ned.IdealChannel\""
par RGG.node[7].port$o[0].channel typename "\"ned.IdealChannel\""
par RGG.node[5].port$o[1].channel typename "\"ned.IdealChannel\""
par RGG.node[20].port$o[2].channel typename "\"ned.IdealChannel\""
par RGG.node[5].port$o[2].channel typename "\"ned.IdealChannel\""
par RGG.node[28].port$o[1].channel typename "\"ned.IdealChannel\""
par RGG.node[5].port$o[3].channel typename "\"ned.IdealChannel\""
par RGG.node[37].port$o[0].channel typename "\"ned.IdealChannel\""
par RGG.node[5].port$o[4].channel typename "\"ned.IdealChannel\""
par RGG.node[39].port$o[0].channel typename "\"ned.IdealChannel\""
par RGG.node[5].port$o[5].channel typename "\"ned.IdealChannel\""
par RGG.node[61].port$o[0].channel typename "\"ned.IdealChannel\""
par RGG.node[5].port$o[6].channel typename "\"ned.IdealChannel\""
par RGG.node[62].port$o[0].channel typename "\"ned.IdealChannel\""
par RGG.node[5].port$o[7].channel typename "\"ned.IdealChannel\""
par RGG.node[71].port$o[0].channel typename "\"ned.IdealChannel\""
par RGG.node[5].port$o[8].channel typename "\"ned.IdealChannel\""
par RGG.node[76].port$o[0].channel typename "\"ned.IdealChannel\""
par RGG.node[5].port$o[9].channel typename "\"ned.IdealChannel\""
par RGG.node[77].port$o[0].channel typename "\"ned.IdealChannel\""
par RGG.node[5].port$o[10].channel typename "\"ned.IdealChannel\""
par RGG.node[83].port$o[0].channel typename "\"ned.IdealChannel\""
par RGG.node[5].port$o[11].channel typename "\"ned.IdealChannel\""
par RGG.node[89].port$o[0].channel typename "\"ned.IdealChannel\""
par RGG.node[5].port$o[12].channel typename "\"ned.IdealChannel\""
par RGG.node[92].port$o[0].channel typename "\"ned.IdealChannel\""
par RGG.node[5].port$o[13].channel typename "\"ned.IdealChannel\""
par RGG.node[94].port$o[0].channel typename "\"ned.IdealChannel\""
par RGG.node[5].port$o[14].channel typename "\"ned.IdealChannel\""
par RGG.node[96].port$o[0].channel typename "\"ned.IdealChannel\""
par RGG.node[6].port$o[0].channel typename "\"ned.IdealChannel\""
par RGG.node[20].port$o[3].channel typename "\"ned.IdealChannel\""
par RGG.node[6].port$o[1].channel typename "\"ned.IdealChannel\""
par RGG.node[28].port$o[2].channel typename "\"ned.IdealChannel\""
par RGG.node[6].port$o[2].channel typename "\"ned.IdealChannel\""
par RGG.node[44].port$o[1].channel typename "\"ned.IdealChannel\""
par RGG.node[6].port$o[3].channel typename "\"ned.IdealChannel\""
par RGG.node[47].port$o[0].channel typename "\"ned.IdealChannel\""
par RGG.node[6].port$o[4].channel typename "\"ned.IdealChannel\""
par RGG.node[49].port$o[2].channel typename "\"ned.IdealChannel\""
par RGG.node[6].port$o[5].channel typename "\"ned.IdealChannel\""
par RGG.node[57].port$o[2].channel typename "\"ned.IdealChannel\""
par RGG.node[6].port$o[6].channel typename "\"ned.IdealChannel\""
par RGG.node[67].port$o[0].channel typename "\"ned.IdealChannel\""
par RGG.node[6].port$o[7].channel typename "\"ned.IdealChannel\""
par RGG.node[69].port$o[0].channel typename "\"ned.IdealChannel\""
par RGG.node[6].port$o[8].channel typename "\"ned.IdealChannel\""
par RGG.node[71].port$o[1].channel typename "\"ned.IdealChannel\""
par RGG.node[6].port$o[9].channel typename "\"ned.IdealChannel\""
par RGG.node[74].port$o[0].channel typename "\"ned.IdealChannel\""
par RGG.node[6].port$o[10].channel typename "\"ned.IdealChannel\""
par RGG.node[83].port$o[1].channel typename "\"ned.IdealChannel\""
par RGG.node[6].port$o[11].channel typename "\"ned.IdealChannel\""
par RGG.node[88].port$o[0].channel typename "\"ned.IdealChannel\""
par RGG.node[6].port$o[12].channel typename "\"ned.IdealChannel\""
par RGG.node[96].port$o[1].channel typename "\"ned.IdealChannel\""
par RGG.node[7].port$o[1].channel typename "\"ned.IdealChannel\""
par RGG.node[15].port$o[0].channel typename "\"ned.IdealChannel\""
par RGG.node[7].port$o[2].channel typename "\"ned.IdealChannel\""
par RGG.node[20].port$o[4].channel typename "\"ned.IdealChannel\""
par RGG.node[7].port$o[3].channel typename "\"ned.IdealChannel\""
par RGG.node[32].port$o[0].channel typename "\"ned.IdealChannel\""
par RGG.node[7].port$o[4].channel typename "\"ned.IdealChannel\""
par RGG.node[37].port$o[1].channel typename "\"ned.IdealChannel\""
par RGG.node[7].port$o[5].channel typename "\"ned.IdealChannel\""
par RGG.node[39].port$o[1].channel typename "\"ned.IdealChannel\""
par RGG.node[7].port$o[6].channel typename "\"ned.IdealChannel\""
par RGG.node[61].port$o[1].channel typename "\"ned.IdealChannel\""
par RGG.node[7].port$o[7].channel typename "\"ned.IdealChannel\""
par RGG.node[62].port$o[1].channel typename "\"ned.IdealChannel\""
par RGG.node[7].port$o[8].channel typename "\"ned.IdealChannel\""
par RGG.node[66].port$o[0].channel typename "\"ned.IdealChannel\""
par RGG.node[7].port$o[9].channel typename "\"ned.IdealChannel\""
par RGG.node[76].port$o[1].channel typename "\"ned.IdealChannel\""
par RGG.node[7].port$o[10].channel typename "\"ned.IdealChannel\""
par RGG.node[77].port$o[1].channel typename "\"ned.IdealChannel\""
par RGG.node[7].port$o[11].channel typename "\"ned.IdealChannel\""
par RGG.node[83].port$o[2].channel typename "\"ned.IdealChannel\""
par RGG.node[7].port$o[12].channel typename "\"ned.IdealChannel\""
par RGG.node[89].port$o[1].channel typename "\"ned.IdealChannel\""
par RGG.node[7].port$o[13].channel typename "\"ned.IdealChannel\""
par RGG.node[91].port$o[0].channel typename "\"ned.IdealChannel\""
par RGG.node[7].port$o[14].channel typename "\"ned.IdealChannel\""
par RGG.node[92].port$o[1].channel typename "\"ned.IdealChannel\""
par RGG.node[7].port$o[15].channel typename "\"ned.IdealChannel\""
par RGG.node[94].port$o[1].channel typename "\"ned.IdealChannel\""
par RGG.node[8].port$o[1].channel typename "\"ned.IdealChannel\""
par RGG.node[10].port$o[2].channel typename "\"ned.IdealChannel\""
par RGG.node[8].port$o[2].channel typename "\"ned.IdealChannel\""
par RGG.node[11].port$o[2].channel typename "\"ned.IdealChannel\""
par RGG.node[8].port$o[3].channel typename "\"ned.IdealChannel\""
par RGG.node[16].port$o[0].channel typename "\"ned.IdealChannel\""
par RGG.node[8].port$o[4].channel typename "\"ned.IdealChannel\""
par RGG.node[23].port$o[1].channel typename "\"ned.IdealChannel\""
par RGG.node[8].port$o[5].channel typename "\"ned.IdealChannel\""
par RGG.node[24].port$o[1].channel typename "\"ned.IdealChannel\""
par RGG.node[8].port$o[6].channel typename "\"ned.IdealChannel\""
par RGG.node[27].port$o[2].channel typename "\"ned.IdealChannel\""
par RGG.node[8].port$o[7].channel typename "\"ned.IdealChannel\""
par RGG.node[31].port$o[1].channel typename "\"ned.IdealChannel\""
par RGG.node[8].port$o[8].channel typename "\"ned.IdealChannel\""
par RGG.node[34].port$o[2].channel typename "\"ned.IdealChannel\""
par RGG.node[8].port$o[9].channel typename "\"ned.IdealChannel\""
par RGG.node[42].port$o[2].channel typename "\"ned.IdealChannel\""
par RGG.node[8].port$o[10].channel typename "\"ned.IdealChannel\""
par RGG.node[51].port$o[1].channel typename "\"ned.IdealChannel\""
par RGG.node[8].port$o[11].channel typename "\"ned.IdealChannel\""
par RGG.node[52].port$o[1].channel typename "\"ned.IdealChannel\""
par RGG.node[8].port$o[12].channel typename "\"ned.IdealChannel\""
par RGG.node[53].port$o[1].channel typename "\"ned.IdealChannel\""
par RGG.node[8].port$o[13].channel typename "\"ned.IdealChannel\""
par RGG.node[54].port$o[1].channel typename "\"ned.IdealChannel\""
par RGG.node[8].port$o[14].channel typename "\"ned.IdealChannel\""
par RGG.node[58].port$o[1].channel typename "\"ned.IdealChannel\""
par RGG.node[8].port$o[15].channel typename "\"ned.IdealChannel\""
par RGG.node[82].port$o[1].channel typename "\"ned.IdealChannel\""
par RGG.node[8].port$o[16].channel typename "\"ned.IdealChannel\""
par RGG.node[85].port$o[2].channel typename "\"ned.IdealChannel\""
par RGG.node[8].port$o[17].channel typename "\"ned.IdealChannel\""
par RGG.node[87].port$o[3].channel typename "\"ned.IdealChannel\""
par RGG.node[8].port$o[18].channel typename "\"ned.IdealChannel\""
par RGG.node[95].port$o[2].channel typename "\"ned.IdealChannel\""
par RGG.node[9].port$o[1].channel typename "\"ned.IdealChannel\""
par RGG.node[13].port$o[1].channel typename "\"ned.IdealChannel\""
par RGG.node[9].port$o[2].channel typename "\"ned.IdealChannel\""
par RGG.node[23].port$o[2].channel typename "\"ned.IdealChannel\""
par RGG.node[9].port$o[3].channel typename "\"ned.IdealChannel\""
par RGG.node[25].port$o[1].channel typename "\"ned.IdealChannel\""
par RGG.node[9].port$o[4].channel typename "\"ned.IdealChannel\""
par RGG.node[26].port$o[1].channel typename "\"ned.IdealChannel\""
par RGG.node[9].port$o[5].channel typename "\"ned.IdealChannel\""
par RGG.node[35].port$o[0].channel typename "\"ned.IdealChannel\""
par RGG.node[9].port$o[6].channel typename "\"ned.IdealChannel\""
par RGG.node[63].port$o[0].channel typename "\"ned.IdealChannel\""
par RGG.node[9].port$o[7].channel typename "\"ned.IdealChannel\""
par RGG.node[80].port$o[1].channel typename "\"ned.IdealChannel\""
par RGG.node[9].port$o[8].channel typename "\"ned.IdealChannel\""
par RGG.node[99].port$o[1].channel typename "\"ned.IdealChannel\""
par RGG.node[10].port$o[3].channel typename "\"ned.IdealChannel\""
par RGG.node[16].port$o[1].channel typename "\"ned.IdealChannel\""
par RGG.node[10].port$o[4].channel typename "\"ned.IdealChannel\""
par RGG.node[23].port$o[3].channel typename "\"ned.IdealChannel\""
par RGG.node[10].port$o[5].channel typename "\"ned.IdealChannel\""
par RGG.node[24].port$o[2].channel typename "\"ned.IdealChannel\""
par RGG.node[10].port$o[6].channel typename "\"ned.IdealChannel\""
par RGG.node[31].port$o[2].channel typename "\"ned.IdealChannel\""
par RGG.node[10].port$o[7].channel typename "\"ned.IdealChannel\""
par RGG.node[42].port$o[3].channel typename "\"ned.IdealChannel\""
par RGG.node[10].port$o[8].channel typename "\"ned.IdealChannel\""
par RGG.node[51].port$o[2].channel typename "\"ned.IdealChannel\""
par RGG.node[10].port$o[9].channel typename "\"ned.IdealChannel\""
par RGG.node[52].port$o[2].channel typename "\"ned.IdealChannel\""
par RGG.node[10].port$o[10].channel typename "\"ned.IdealChannel\""
par RGG.node[54].port$o[2].channel typename "\"ned.IdealChannel\""
par RGG.node[10].port$o[11].channel typename "\"ned.IdealChannel\""
par RGG.node[58].port$o[2].channel typename "\"ned.IdealChannel\""
par RGG.node[10].port$o[12].channel typename "\"ned.IdealChannel\""
par RGG.node[82].port$o[2].channel typename "\"ned.IdealChannel\""
par RGG.node[10].port$o[13].channel typename "\"ned.IdealChannel\""
par RGG.node[90].port$o[1].channel typename "\"ned.IdealChannel\""
par RGG.node[11].port$o[3].channel typename "\"ned.IdealChannel\""
par RGG.node[17].port$o[2].channel typename "\"ned.IdealChannel\""
par RGG.node[11].port$o[4].channel typename "\"ned.IdealChannel\""
par RGG.node[21].port$o[2].channel typename "\"ned.IdealChannel\""
par RGG.node[11].port$o[5].channel typename "\"ned.IdealChannel\""
par RGG.node[22].port$o[3].channel typename "\"ned.IdealChannel\""
par RGG.node[11].port$o[6].channel typename "\"ned.IdealChannel\""
par RGG.node[27].port$o[3].channel typename "\"ned.IdealChannel\""
par RGG.node[11].port$o[7].channel typename "\"ned.IdealChannel\""
par RGG.node[34].port$o[3].channel typename "\"ned.IdealChannel\""
par RGG.node[11].port$o[8].channel typename "\"ned.IdealChannel\""
par RGG.node[36].port$o[2].channel typename "\"ned.IdealChannel\""
par RGG.node[11].port$o[9].channel typename "\"ned.IdealChannel\""
par RGG.node[42].port$o[4].channel typename "\"ned.IdealChannel\""
par RGG.node[11].port$o[10].channel typename "\"ned.IdealChannel\""
par RGG.node[51].port$o[3].channel typename "\"ned.IdealChannel\""
par RGG.node[11].port$o[11].channel typename "\"ned.IdealChannel\""
par RGG.node[53].port$o[2].channel typename "\"ned.IdealChannel\""
par RGG.node[11].port$o[12].channel typename "\"ned.IdealChannel\""
par RGG.node[54].port$o[3].channel typename "\"ned.IdealChannel\""
par RGG.node[11].port$o[13].channel typename "\"ned.IdealChannel\""
par RGG.node[56].port$o[2].channel typename "\"ned.IdealChannel\""
par RGG.node[11].port$o[14].channel typename "\"ned.IdealChannel\""
par RGG.node[59].port$o[2].channel typename "\"ned.IdealChannel\""
par RGG.node[11].port$o[15].channel typename "\"ned.IdealChannel\""
par RGG.node[60].port$o[2].channel typename "\"ned.IdealChannel\""
par RGG.node[11].port$o[16].channel typename "\"ned.IdealChannel\""
par RGG.node[65].port$o[2].channel typename "\"ned.IdealChannel\""
par RGG.node[11].port$o[17].channel typename "\"ned.IdealChannel\""
par RGG.node[79].port$o[3].channel typename "\"ned.IdealChannel\""
par RGG.node[11].port$o[18].channel typename "\"ned.IdealChannel\""
par RGG.node[82].port$o[3].channel typename "\"ned.IdealChannel\""
par RGG.node[11].port$o[19].channel typename "\"ned.IdealChannel\""
par RGG.node[85].port$o[3].channel typename "\"ned.IdealChannel\""
par RGG.node[11].port$o[20].channel typename "\"ned.IdealChannel\""
par RGG.node[87].port$o[4].channel typename "\"ned.IdealChannel\""
par RGG.node[11].port$o[21].channel typename "\"ned.IdealChannel\""
par RGG.node[93].port$o[2].channel typename "\"ned.IdealChannel\""
par RGG.node[11].port$o[22].channel typename "\"ned.IdealChannel\""
par RGG.node[95].port$o[3].channel typename "\"ned.IdealChannel\""
par RGG.node[11].port$o[23].channel typename "\"ned.IdealChannel\""
par RGG.node[97].port$o[1].channel typename "\"ned.IdealChannel\""
par RGG.node[11].port$o[24].channel typename "\"ned.IdealChannel\""
par RGG.node[98].port$o[1].channel typename "\"ned.IdealChannel\""
par RGG.node[12].port$o[1].channel typename "\"ned.IdealChannel\""
par RGG.node[17].port$o[3].channel typename "\"ned.IdealChannel\""
par RGG.node[12].port$o[2].channel typename "\"ned.IdealChannel\""
par RGG.node[18].port$o[0].channel typename "\"ned.IdealChannel\""
par RGG.node[12].port$o[3].channel typename "\"ned.IdealChannel\""
par RGG.node[29].port$o[1].channel typename "\"ned.IdealChannel\""
par RGG.node[12].port$o[4].channel typename "\"ned.IdealChannel\""
par RGG.node[30].port$o[0].channel typename "\"ned.IdealChannel\""
par RGG.node[12].port$o[5].channel typename "\"ned.IdealChannel\""
par RGG.node[33].port$o[1].channel typename "\"ned.IdealChannel\""
par RGG.node[12].port$o[6].channel typename "\"ned.IdealChannel\""
par RGG.node[38].port$o[1].channel typename "\"ned.IdealChannel\""
par RGG.node[12].port$o[7].channel typename "\"ned.IdealChannel\""
par RGG.node[43].port$o[1].channel typename "\"ned.IdealChannel\""
par RGG.node[12].port$o[8].channel typename "\"ned.IdealChannel\""
par RGG.node[44].port$o[2].channel typename "\"ned.IdealChannel\""
par RGG.node[12].port$o[9].channel typename "\"ned.IdealChannel\""
par RGG.node[55].port$o[0].channel typename "\"ned.IdealChannel\""
par RGG.node[12].port$o[10].channel typename "\"ned.IdealChannel\""
par RGG.node[60].port$o[3].channel typename "\"ned.IdealChannel\""
par RGG.node[12].port$o[11].channel typename "\"ned.IdealChannel\""
par RGG.node[65].port$o[3].channel typename "\"ned.IdealChannel\""
par RGG.node[12].port$o[12].channel typename "\"ned.IdealChannel\""
par RGG.node[70].port$o[1].channel typename "\"ned.IdealChannel\""
par RGG.node[12].port$o[13].channel typename "\"ned.IdealChannel\""
par RGG.node[73].port$o[1].channel typename "\"ned.IdealChannel\""
par RGG.node[13].port$o[2].channel typename "\"ned.IdealChannel\""
par RGG.node[15].port$o[1].channel typename "\"ned.IdealChannel\""
par RGG.node[13].port$o[3].channel typename "\"ned.IdealChannel\""
par RGG.node[23].port$o[4].channel typename "\"ned.IdealChannel\""
par RGG.node[13].port$o[4].channel typename "\"ned.IdealChannel\""
par RGG.node[26].port$o[2].channel typename "\"ned.IdealChannel\""
par RGG.node[13].port$o[5].channel typename "\"ned.IdealChannel\""
par RGG.node[35].port$o[1].channel typename "\"ned.IdealChannel\""
par RGG.node[13].port$o[6].channel typename "\"ned.IdealChannel\""
par RGG.node[63].port$o[1].channel typename "\"ned.IdealChannel\""
par RGG.node[13].port$o[7].channel typename "\"ned.IdealChannel\""
par RGG.node[68].port$o[1].channel typename "\"ned.IdealChannel\""
par RGG.node[13].port$o[8].channel typename "\"ned.IdealChannel\""
par RGG.node[80].port$o[2].channel typename "\"ned.IdealChannel\""
par RGG.node[13].port$o[9].channel typename "\"ned.IdealChannel\""
par RGG.node[99].port$o[2].channel typename "\"ned.IdealChannel\""
par RGG.node[14].port$o[0].channel typename "\"ned.IdealChannel\""
par RGG.node[40].port$o[1].channel typename "\"ned.IdealChannel\""
par RGG.node[14].port$o[1].channel typename "\"ned.IdealChannel\""
par RGG.node[45].port$o[0].channel typename "\"ned.IdealChannel\""
par RGG.node[14].port$o[2].channel typename "\"ned.IdealChannel\""
par RGG.node[48].port$o[1].channel typename "\"ned.IdealChannel\""
par RGG.node[14].port$o[3].channel typename "\"ned.IdealChannel\""
par RGG.node[72].port$o[1].channel typename "\"ned.IdealChannel\""
par RGG.node[14].port$o[4].channel typename "\"ned.IdealChannel\""
par RGG.node[75].port$o[0].channel typename "\"ned.IdealChannel\""
par RGG.node[14].port$o[5].channel typename "\"ned.IdealChannel\""
par RGG.node[78].port$o[2].channel typename "\"ned.IdealChannel\""
par RGG.node[15].port$o[2].channel typename "\"ned.IdealChannel\""
par RGG.node[35].port$o[2].channel typename "\"ned.IdealChannel\""
par RGG.node[15].port$o[3].channel typename "\"ned.IdealChannel\""
par RGG.node[62].port$o[2].channel typename "\"ned.IdealChannel\""
par RGG.node[15].port$o[4].channel typename "\"ned.IdealChannel\""
par RGG.node[63].port$o[2].channel typename "\"ned.IdealChannel\""
par RGG.node[15].port$o[5].channel typename "\"ned.IdealChannel\""
par RGG.node[64].port$o[0].channel typename "\"ned.IdealChannel\""
par RGG.node[15].port$o[6].channel typename "\"ned.IdealChannel\""
par RGG.node[68].port$o[2].channel typename "\"ned.IdealChannel\""
par RGG.node[15].port$o[7].channel typename "\"ned.IdealChannel\""
par RGG.node[77].port$o[2].channel typename "\"ned.IdealChannel\""
par RGG.node[15].port$o[8].channel typename "\"ned.IdealChannel\""
par RGG.node[80].port$o[3].channel typename "\"ned.IdealChannel\""
par RGG.node[16].port$o[2].channel typename "\"ned.IdealChannel\""
par RGG.node[24].port$o[3].channel typename "\"ned.IdealChannel\""
par RGG.node[16].port$o[3].channel typename "\"ned.IdealChannel\""
par RGG.node[31].port$o[3].channel typename "\"ned.IdealChannel\""
par RGG.node[16].port$o[4].channel typename "\"ned.IdealChannel\""
par RGG.node[46].port$o[1].channel typename "\"ned.IdealChannel\""
par RGG.node[16].port$o[5].channel typename "\"ned.IdealChannel\""
par RGG.node[51].port$o[4].channel typename "\"ned.IdealChannel\""
par RGG.node[16].port$o[6].channel typename "\"ned.IdealChannel\""
par RGG.node[52].port$o[3].channel typename "\"ned.IdealChannel\""
par RGG.node[16].port$o[7].channel typename "\"ned.IdealChannel\""
par RGG.node[54].port$o[4].channel typename "\"ned.IdealChannel\""
par RGG.node[16].port$o[8].channel typename "\"ned.IdealChannel\""
par RGG.node[58].port$o[3].channel typename "\"ned.IdealChannel\""
par RGG.node[16].port$o[9].channel typename "\"ned.IdealChannel\""
par RGG.node[82].port$o[4].channel typename "\"ned.IdealChannel\""
par RGG.node[16].port$o[10].channel typename "\"ned.IdealChannel\""
par RGG.node[84].port$o[1].channel typename "\"ned.IdealChannel\""
par RGG.node[16].port$o[11].channel typename "\"ned.IdealChannel\""
par RGG.node[90].port$o[2].channel typename "\"ned.IdealChannel\""
par RGG.node[17].port$o[4].channel typename "\"ned.IdealChannel\""
par RGG.node[19].port$o[2].channel typename "\"ned.IdealChannel\""
par RGG.node[17].port$o[5].channel typename "\"ned.IdealChannel\""
par RGG.node[21].port$o[3].channel typename "\"ned.IdealChannel\""
par RGG.node[17].port$o[6].channel typename "\"ned.IdealChannel\""
par RGG.node[22].port$o[4].channel typename "\"ned.IdealChannel\""
par RGG.node[17].port$o[7].channel typename "\"ned.IdealChannel\""
par RGG.node[29].port$o[2].channel typename "\"ned.IdealChannel\""
par RGG.node[17].port$o[8].channel typename "\"ned.IdealChannel\""
par RGG.node[33].port$o[2].channel typename "\"ned.IdealChannel\""
par RGG.node[17].port$o[9].channel typename "\"ned.IdealChannel\""
par RGG.node[36].port$o[3].channel typename "\"ned.IdealChannel\""
par RGG.node[17].port$o[10].channel typename "\"ned.IdealChannel\""
par RGG.node[38].port$o[2].channel typename "\"ned.IdealChannel\""
par RGG.node[17].port$o[11].channel typename "\"ned.IdealChannel\""
par RGG.node[43].port$o[2].channel typename "\"ned.IdealChannel\""
par RGG.node[17].port$o[12].channel typename "\"ned.IdealChannel\""
par RGG.node[55].port$o[1].channel typename "\"ned.IdealChannel\""
par RGG.node[17].port$o[13].channel typename "\"ned.IdealChannel\""
par RGG.node[59].port$o[3].channel typename "\"ned.IdealChannel\""
par RGG.node[17].port$o[14].channel typename "\"ned.IdealChannel\""
par RGG.node[60].port$o[4].channel typename "\"ned.IdealChannel\""
par RGG.node[17].port$o[15].channel typename "\"ned.IdealChannel\""
par RGG.node[65].port$o[4].channel typename "\"ned.IdealChannel\""
par RGG.node[17].port$o[16].channel typename "\"ned.IdealChannel\""
par RGG.node[70].port$o[2].channel typename "\"ned.IdealChannel\""
par RGG.node[17].port$o[17].channel typename "\"ned.IdealChannel\""
par RGG.node[73].port$o[2].channel typename "\"ned.IdealChannel\""
par RGG.node[17].port$o[18].channel typename "\"ned.IdealChannel\""
par RGG.node[79].port$o[4].channel typename "\"ned.IdealChannel\""
par RGG.node[17].port$o[19].channel typename "\"ned.IdealChannel\""
par RGG.node[81].port$o[2].channel typename "\"ned.IdealChannel\""
par RGG.node[17].port$o[20].channel typename "\"ned.IdealChannel\""
par RGG.node[87].port$o[5].channel typename "\"ned.IdealChannel\""
par RGG.node[17].port$o[21].channel typename "\"ned.IdealChannel\""
par RGG.node[93].port$o[3].channel typename "\"ned.IdealChannel\""
par RGG.node[17].port$o[22].channel typename "\"ned.IdealChannel\""
par RGG.node[95].port$o[4].channel typename "\"ned.IdealChannel\""
par RGG.node[17].port$o[23].channel typename "\"ned.IdealChannel\""
par RGG.node[97].port$o[2].channel typename "\"ned.IdealChannel\""
par RGG.node[18].port$o[1].channel typename "\"ned.IdealChannel\""
par RGG.node[29].port$o[3].channel typename "\"ned.IdealChannel\""
par RGG.node[18].port$o[2].channel typename "\"ned.IdealChannel\""
par RGG.node[30].port$o[1].channel typename "\"ned.IdealChannel\""
par RGG.node[18].port$o[3].channel typename "\"ned.IdealChannel\""
par RGG.node[33].port$o[3].channel typename "\"ned.IdealChannel\""
par RGG.node[18].port$o[4].channel typename "\"ned.IdealChannel\""
par RGG.node[43].port$o[3].channel typename "\"ned.IdealChannel\""
par RGG.node[18].port$o[5].channel typename "\"ned.IdealChannel\""
par RGG.node[44].port$o[3].channel typename "\"ned.IdealChannel\""
par RGG.node[18].port$o[6].channel typename "\"ned.IdealChannel\""
par RGG.node[55].port$o[2].channel typename "\"ned.IdealChannel\""
par RGG.node[18].port$o[7].channel typename "\"ned.IdealChannel\""
par RGG.node[69].port$o[1].channel typename "\"ned.IdealChannel\""
par RGG.node[18].port$o[8].channel typename "\"ned.IdealChannel\""
par RGG.node[70].port$o[3].channel typename "\"ned.IdealChannel\""
par RGG.node[18].port$o[9].channel typename "\"ned.IdealChannel\""
par RGG.node[86].port$o[0].channel typename "\"ned.IdealChannel\""
par RGG.node[19].port$o[3].channel typename "\"ned.IdealChannel\""
par RGG.node[21].port$o[4].channel typename "\"ned.IdealChannel\""
par RGG.node[19].port$o[4].channel typename "\"ned.IdealChannel\""
par RGG.node[22].port$o[5].channel typename "\"ned.IdealChannel\""
par RGG.node[19].port$o[5].channel typename "\"ned.IdealChannel\""
par RGG.node[36].port$o[4].channel typename "\"ned.IdealChannel\""
par RGG.node[19].port$o[6].channel typename "\"ned.IdealChannel\""
par RGG.node[38].port$o[3].channel typename "\"ned.IdealChannel\""
par RGG.node[19].port$o[7].channel typename "\"ned.IdealChannel\""
par RGG.node[40].port$o[2].channel typename "\"ned.IdealChannel\""
par RGG.node[19].port$o[8].channel typename "\"ned.IdealChannel\""
par RGG.node[48].port$o[2].channel typename "\"ned.IdealChannel\""
par RGG.node[19].port$o[9].channel typename "\"ned.IdealChannel\""
par RGG.node[53].port$o[3].channel typename "\"ned.IdealChannel\""
par RGG.node[19].port$o[10].channel typename "\"ned.IdealChannel\""
par RGG.node[60].port$o[5].channel typename "\"ned.IdealChannel\""
par RGG.node[19].port$o[11].channel typename "\"ned.IdealChannel\""
par RGG.node[72].port$o[2].channel typename "\"ned.IdealChannel\""
par RGG.node[19].port$o[12].channel typename "\"ned.IdealChannel\""
par RGG.node[73].port$o[3].channel typename "\"ned.IdealChannel\""
par RGG.node[19].port$o[13].channel typename "\"ned.IdealChannel\""
par RGG.node[75].port$o[1].channel typename "\"ned.IdealChannel\""
par RGG.node[19].port$o[14].channel typename "\"ned.IdealChannel\""
par RGG.node[78].port$o[3].channel typename "\"ned.IdealChannel\""
par RGG.node[19].port$o[15].channel typename "\"ned.IdealChannel\""
par RGG.node[79].port$o[5].channel typename "\"ned.IdealChannel\""
par RGG.node[19].port$o[16].channel typename "\"ned.IdealChannel\""
par RGG.node[81].port$o[3].channel typename "\"ned.IdealChannel\""
par RGG.node[19].port$o[17].channel typename "\"ned.IdealChannel\""
par RGG.node[93].port$o[4].channel typename "\"ned.IdealChannel\""
par RGG.node[19].port$o[18].channel typename "\"ned.IdealChannel\""
par RGG.node[95].port$o[5].channel typename "\"ned.IdealChannel\""
par RGG.node[19].port$o[19].channel typename "\"ned.IdealChannel\""
par RGG.node[97].port$o[3].channel typename "\"ned.IdealChannel\""
par RGG.node[19].port$o[20].channel typename "\"ned.IdealChannel\""
par RGG.node[98].port$o[2].channel typename "\"ned.IdealChannel\""
par RGG.node[20].port$o[5].channel typename "\"ned.IdealChannel\""
par RGG.node[27].port$o[4].channel typename "\"ned.IdealChannel\""
par RGG.node[20].port$o[6].channel typename "\"ned.IdealChannel\""
par RGG.node[28].port$o[3].channel typename "\"ned.IdealChannel\""
par RGG.node[20].port$o[7].channel typename "\"ned.IdealChannel\""
par RGG.node[34].port$o[4].channel typename "\"ned.IdealChannel\""
par RGG.node[20].port$o[8].channel typename "\"ned.IdealChannel\""
par RGG.node[49].port$o[3].channel typename "\"ned.IdealChannel\""
par RGG.node[20].port$o[9].channel typename "\"ned.IdealChannel\""
par RGG.node[56].port$o[3].channel typename "\"ned.IdealChannel\""
par RGG.node[20].port$o[10].channel typename "\"ned.IdealChannel\""
par RGG.node[57].port$o[3].channel typename "\"ned.IdealChannel\""
par RGG.node[20].port$o[11].channel typename "\"ned.IdealChannel\""
par RGG.node[61].port$o[2].channel typename "\"ned.IdealChannel\""
par RGG.node[20].port$o[12].channel typename "\"ned.IdealChannel\""
par RGG.node[67].port$o[1].channel typename "\"ned.IdealChannel\""
par RGG.node[20].port$o[13].channel typename "\"ned.IdealChannel\""
par RGG.node[71].port$o[2].channel typename "\"ned.IdealChannel\""
par RGG.node[20].port$o[14].channel typename "\"ned.IdealChannel\""
par RGG.node[83].port$o[3].channel typename "\"ned.IdealChannel\""
par RGG.node[20].port$o[15].channel typename "\"ned.IdealChannel\""
par RGG.node[88].port$o[1].channel typename "\"ned.IdealChannel\""
par RGG.node[20].port$o[16].channel typename "\"ned.IdealChannel\""
par RGG.node[92].port$o[2].channel typename "\"ned.IdealChannel\""
par RGG.node[20].port$o[17].channel typename "\"ned.IdealChannel\""
par RGG.node[96].port$o[2].channel typename "\"ned.IdealChannel\""
par RGG.node[21].port$o[5].channel typename "\"ned.IdealChannel\""
par RGG.node[22].port$o[6].channel typename "\"ned.IdealChannel\""
par RGG.node[21].port$o[6].channel typename "\"ned.IdealChannel\""
par RGG.node[29].port$o[4].channel typename "\"ned.IdealChannel\""
par RGG.node[21].port$o[7].channel typename "\"ned.IdealChannel\""
par RGG.node[33].port$o[4].channel typename "\"ned.IdealChannel\""
par RGG.node[21].port$o[8].channel typename "\"ned.IdealChannel\""
par RGG.node[36].port$o[5].channel typename "\"ned.IdealChannel\""
par RGG.node[21].port$o[9].channel typename "\"ned.IdealChannel\""
par RGG.node[38].port$o[4].channel typename "\"ned.IdealChannel\""
par RGG.node[21].port$o[10].channel typename "\"ned.IdealChannel\""
par RGG.node[48].port$o[3].channel typename "\"ned.IdealChannel\""
par RGG.node[21].port$o[11].channel typename "\"ned.IdealChannel\""
par RGG.node[53].port$o[4].channel typename "\"ned.IdealChannel\""
par RGG.node[21].port$o[12].channel typename "\"ned.IdealChannel\""
par RGG.node[59].port$o[4].channel typename "\"ned.IdealChannel\""
par RGG.node[21].port$o[13].channel typename "\"ned.IdealChannel\""
par RGG.node[60].port$o[6].channel typename "\"ned.IdealChannel\""
par RGG.node[21].port$o[14].channel typename "\"ned.IdealChannel\""
par RGG.node[65].port$o[5].channel typename "\"ned.IdealChannel\""
par RGG.node[21].port$o[15].channel typename "\"ned.IdealChannel\""
par RGG.node[72].port$o[3].channel typename "\"ned.IdealChannel\""
par RGG.node[21].port$o[16].channel typename "\"ned.IdealChannel\""
par RGG.node[73].port$o[4].channel typename "\"ned.IdealChannel\""
par RGG.node[21].port$o[17].channel typename "\"ned.IdealChannel\""
par RGG.node[78].port$o[4].channel typename "\"ned.IdealChannel\""
par RGG.node[21].port$o[18].channel typename "\"ned.IdealChannel\""
par RGG.node[79].port$o[6].channel typename "\"ned.IdealChannel\""
par RGG.node[21].port$o[19].channel typename "\"ned.IdealChannel\""
par RGG.node[81].port$o[4].channel typename "\"ned.IdealChannel\""
par RGG.node[21].port$o[20].channel typename "\"ned.IdealChannel\""
par RGG.node[87].port$o[6].channel typename "\"ned.IdealChannel\""
par RGG.node[21].port$o[21].channel typename "\"ned.IdealChannel\""
par RGG.node[93].port$o[5].channel typename "\"ned.IdealChannel\""
par RGG.node[21].port$o[22].channel typename "\"ned.IdealChannel\""
par RGG.node[95].port$o[6].channel typename "\"ned.IdealChannel\""
par RGG.node[21].port$o[23].channel typename "\"ned.IdealChannel\""
par RGG.node[97].port$o[4].channel typename "\"ned.IdealChannel\""
par RGG.node[21].port$o[24].channel typename "\"ned.IdealChannel\""
par RGG.node[98].port$o[3].channel typename "\"ned.IdealChannel\""
par RGG.node[22].port$o[7].channel typename "\"ned.IdealChannel\""
par RGG.node[36].port$o[6].channel typename "\"ned.IdealChannel\""
par RGG.node[22].port$o[8].channel typename "\"ned.IdealChannel\""
par RGG.node[53].port$o[5].channel typename "\"ned.IdealChannel\""
par RGG.node[22].port$o[9].channel typename "\"ned.IdealChannel\""
par RGG.node[59].port$o[5].channel typename "\"ned.IdealChannel\""
par RGG.node[22].port$o[10].channel typename "\"ned.IdealChannel\""
par RGG.node[60].port$o[7].channel typename "\"ned.IdealChannel\""
par RGG.node[22].port$o[11].channel typename "\"ned.IdealChannel\""
par RGG.node[65].port$o[6].channel typename "\"ned.IdealChannel\""
par RGG.node[22].port$o[12].channel typename "\"ned.IdealChannel\""
par RGG.node[72].port$o[4].channel typename "\"ned.IdealChannel\""
par RGG.node[22].port$o[13].channel typename "\"ned.IdealChannel\""
par RGG.node[78].port$o[5].channel typename "\"ned.IdealChannel\""
par RGG.node[22].port$o[14].channel typename "\"ned.IdealChannel\""
par RGG.node[79].port$o[7].channel typename "\"ned.IdealChannel\""
par RGG.node[22].port$o[15].channel typename "\"ned.IdealChannel\""
par RGG.node[81].port$o[5].channel typename "\"ned.IdealChannel\""
par RGG.node[22].port$o[16].channel typename "\"ned.IdealChannel\""
par RGG.node[87].port$o[7].channel typename "\"ned.IdealChannel\""
par RGG.node[22].port$o[17].channel typename "\"ned.IdealChannel\""
par RGG.node[93].port$o[6].channel typename "\"ned.IdealChannel\""
par RGG.node[22].port$o[18].channel typename "\"ned.IdealChannel\""
par RGG.node[95].port$o[7].channel typename "\"ned.IdealChannel\""
par RGG.node[22].port$o[19].channel typename "\"ned.IdealChannel\""
par RGG.node[97].port$o[5].channel typename "\"ned.IdealChannel\""
par RGG.node[22].port$o[20].channel typename "\"ned.IdealChannel\""
par RGG.node[98].port$o[4].channel typename "\"ned.IdealChannel\""
par RGG.node[23].port$o[5].channel typename "\"ned.IdealChannel\""
par RGG.node[25].port$o[2].channel typename "\"ned.IdealChannel\""
par RGG.node[23].port$o[6].channel typename "\"ned.IdealChannel\""
par RGG.node[26].port$o[3].channel typename "\"ned.IdealChannel\""
par RGG.node[23].port$o[7].channel typename "\"ned.IdealChannel\""
par RGG.node[42].port$o[5].channel typename "\"ned.IdealChannel\""
par RGG.node[23].port$o[8].channel typename "\"ned.IdealChannel\""
par RGG.node[52].port$o[4].channel typename "\"ned.IdealChannel\""
par RGG.node[23].port$o[9].channel typename "\"ned.IdealChannel\""
par RGG.node[54].port$o[5].channel typename "\"ned.IdealChannel\""
par RGG.node[23].port$o[10].channel typename "\"ned.IdealChannel\""
par RGG.node[68].port$o[3].channel typename "\"ned.IdealChannel\""
par RGG.node[23].port$o[11].channel typename "\"ned.IdealChannel\""
par RGG.node[80].port$o[4].channel typename "\"ned.IdealChannel\""
par RGG.node[23].port$o[12].channel typename "\"ned.IdealChannel\""
par RGG.node[82].port$o[5].channel typename "\"ned.IdealChannel\""
par RGG.node[23].port$o[13].channel typename "\"ned.IdealChannel\""
par RGG.node[99].port$o[3].channel typename "\"ned.IdealChannel\""
par RGG.node[24].port$o[4].channel typename "\"ned.IdealChannel\""
par RGG.node[31].port$o[4].channel typename "\"ned.IdealChannel\""
par RGG.node[24].port$o[5].channel typename "\"ned.IdealChannel\""
par RGG.node[51].port$o[5].channel typename "\"ned.IdealChannel\""
par RGG.node[24].port$o[6].channel typename "\"ned.IdealChannel\""
par RGG.node[52].port$o[5].channel typename "\"ned.IdealChannel\""
par RGG.node[24].port$o[7].channel typename "\"ned.IdealChannel\""
par RGG.node[53].port$o[6].channel typename "\"ned.IdealChannel\""
par RGG.node[24].port$o[8].channel typename "\"ned.IdealChannel\""
par RGG.node[54].port$o[6].channel typename "\"ned.IdealChannel\""
par RGG.node[24].port$o[9].channel typename "\"ned.IdealChannel\""
par RGG.node[58].port$o[4].channel typename "\"ned.IdealChannel\""
par RGG.node[24].port$o[10].channel typename "\"ned.IdealChannel\""
par RGG.node[82].port$o[6].channel typename "\"ned.IdealChannel\""
par RGG.node[24].port$o[11].channel typename "\"ned.IdealChannel\""
par RGG.node[90].port$o[3].channel typename "\"ned.IdealChannel\""
par RGG.node[24].port$o[12].channel typename "\"ned.IdealChannel\""
par RGG.node[97].port$o[6].channel typename "\"ned.IdealChannel\""
par RGG.node[24].port$o[13].channel typename "\"ned.IdealChannel\""
par RGG.node[98].port$o[5].channel typename "\"ned.IdealChannel\""
par RGG.node[25].port$o[3].channel typename "\"ned.IdealChannel\""
par RGG.node[26].port$o[4].channel typename "\"ned.IdealChannel\""
par RGG.node[25].port$o[4].channel typename "\"ned.IdealChannel\""
par RGG.node[46].port$o[2].channel typename "\"ned.IdealChannel\""
par RGG.node[25].port$o[5].channel typename "\"ned.IdealChannel\""
par RGG.node[52].port$o[6].channel typename "\"ned.IdealChannel\""
par RGG.node[25].port$o[6].channel typename "\"ned.IdealChannel\""
par RGG.node[84].port$o[2].channel typename "\"ned.IdealChannel\""
par RGG.node[25].port$o[7].channel typename "\"ned.IdealChannel\""
par RGG.node[99].port$o[4].channel typename "\"ned.IdealChannel\""
par RGG.node[26].port$o[5].channel typename "\"ned.IdealChannel\""
par RGG.node[80].port$o[5].channel typename "\"ned.IdealChannel\""
par RGG.node[26].port$o[6].channel typename "\"ned.IdealChannel\""
par RGG.node[84].port$o[3].channel typename "\"ned.IdealChannel\""
par RGG.node[26].port$o[7].channel typename "\"ned.IdealChannel\""
par RGG.node[99].port$o[5].channel typename "\"ned.IdealChannel\""
par RGG.node[27].port$o[5].channel typename "\"ned.IdealChannel\""
par RGG.node[34].port$o[5].channel typename "\"ned.IdealChannel\""
par RGG.node[27].port$o[6].channel typename "\"ned.IdealChannel\""
par RGG.node[42].port$o[6].channel typename "\"ned.IdealChannel\""
par RGG.node[27].port$o[7].channel typename "\"ned.IdealChannel\""
par RGG.node[49].port$o[4].channel typename "\"ned.IdealChannel\""
par RGG.node[27].port$o[8].channel typename "\"ned.IdealChannel\""
par RGG.node[56].port$o[4].channel typename "\"ned.IdealChannel\""
par RGG.node[27].port$o[9].channel typename "\"ned.IdealChannel\""
par RGG.node[57].port$o[4].channel typename "\"ned.IdealChannel\""
par RGG.node[27].port$o[10].channel typename "\"ned.IdealChannel\""
par RGG.node[59].port$o[6].channel typename "\"ned.IdealChannel\""
par RGG.node[27].port$o[11].channel typename "\"ned.IdealChannel\""
par RGG.node[65].port$o[7].channel typename "\"ned.IdealChannel\""
par RGG.node[27].port$o[12].channel typename "\"ned.IdealChannel\""
par RGG.node[79].port$o[8].channel typename "\"ned.IdealChannel\""
par RGG.node[27].port$o[13].channel typename "\"ned.IdealChannel\""
par RGG.node[85].port$o[4].channel typename "\"ned.IdealChannel\""
par RGG.node[27].port$o[14].channel typename "\"ned.IdealChannel\""
par RGG.node[87].port$o[8].channel typename "\"ned.IdealChannel\""
par RGG.node[27].port$o[15].channel typename "\"ned.IdealChannel\""
par RGG.node[95].port$o[8].channel typename "\"ned.IdealChannel\""
par RGG.node[28].port$o[4].channel typename "\"ned.IdealChannel\""
par RGG.node[44].port$o[4].channel typename "\"ned.IdealChannel\""
par RGG.node[28].port$o[5].channel typename "\"ned.IdealChannel\""
par RGG.node[49].port$o[5].channel typename "\"ned.IdealChannel\""
par RGG.node[28].port$o[6].channel typename "\"ned.IdealChannel\""
par RGG.node[56].port$o[5].channel typename "\"ned.IdealChannel\""
par RGG.node[28].port$o[7].channel typename "\"ned.IdealChannel\""
par RGG.node[57].port$o[5].channel typename "\"ned.IdealChannel\""
par RGG.node[28].port$o[8].channel typename "\"ned.IdealChannel\""
par RGG.node[61].port$o[3].channel typename "\"ned.IdealChannel\""
par RGG.node[28].port$o[9].channel typename "\"ned.IdealChannel\""
par RGG.node[67].port$o[2].channel typename "\"ned.IdealChannel\""
par RGG.node[28].port$o[10].channel typename "\"ned.IdealChannel\""
par RGG.node[71].port$o[3].channel typename "\"ned.IdealChannel\""
par RGG.node[28].port$o[11].channel typename "\"ned.IdealChannel\""
par RGG.node[83].port$o[4].channel typename "\"ned.IdealChannel\""
par RGG.node[28].port$o[12].channel typename "\"ned.IdealChannel\""
par RGG.node[88].port$o[2].channel typename "\"ned.IdealChannel\""
par RGG.node[28].port$o[13].channel typename "\"ned.IdealChannel\""
par RGG.node[96].port$o[3].channel typename "\"ned.IdealChannel\""
par RGG.node[29].port$o[5].channel typename "\"ned.IdealChannel\""
par RGG.node[33].port$o[5].channel typename "\"ned.IdealChannel\""
par RGG.node[29].port$o[6].channel typename "\"ned.IdealChannel\""
par RGG.node[38].port$o[5].channel typename "\"ned.IdealChannel\""
par RGG.node[29].port$o[7].channel typename "\"ned.IdealChannel\""
par RGG.node[43].port$o[4].channel typename "\"ned.IdealChannel\""
par RGG.node[29].port$o[8].channel typename "\"ned.IdealChannel\""
par RGG.node[44].port$o[5].channel typename "\"ned.IdealChannel\""
par RGG.node[29].port$o[9].channel typename "\"ned.IdealChannel\""
par RGG.node[55].port$o[3].channel typename "\"ned.IdealChannel\""
par RGG.node[29].port$o[10].channel typename "\"ned.IdealChannel\""
par RGG.node[60].port$o[8].channel typename "\"ned.IdealChannel\""
par RGG.node[29].port$o[11].channel typename "\"ned.IdealChannel\""
par RGG.node[65].port$o[8].channel typename "\"ned.IdealChannel\""
par RGG.node[29].port$o[12].channel typename "\"ned.IdealChannel\""
par RGG.node[70].port$o[4].channel typename "\"ned.IdealChannel\""
par RGG.node[29].port$o[13].channel typename "\"ned.IdealChannel\""
par RGG.node[73].port$o[5].channel typename "\"ned.IdealChannel\""
par RGG.node[30].port$o[2].channel typename "\"ned.IdealChannel\""
par RGG.node[43].port$o[5].channel typename "\"ned.IdealChannel\""
par RGG.node[30].port$o[3].channel typename "\"ned.IdealChannel\""
par RGG.node[44].port$o[6].channel typename "\"ned.IdealChannel\""
par RGG.node[30].port$o[4].channel typename "\"ned.IdealChannel\""
par RGG.node[50].port$o[0].channel typename "\"ned.IdealChannel\""
par RGG.node[30].port$o[5].channel typename "\"ned.IdealChannel\""
par RGG.node[55].port$o[4].channel typename "\"ned.IdealChannel\""
par RGG.node[30].port$o[6].channel typename "\"ned.IdealChannel\""
par RGG.node[69].port$o[2].channel typename "\"ned.IdealChannel\""
par RGG.node[30].port$o[7].channel typename "\"ned.IdealChannel\""
par RGG.node[74].port$o[1].channel typename "\"ned.IdealChannel\""
par RGG.node[30].port$o[8].channel typename "\"ned.IdealChannel\""
par RGG.node[86].port$o[1].channel typename "\"ned.IdealChannel\""
par RGG.node[31].port$o[5].channel typename "\"ned.IdealChannel\""
par RGG.node[51].port$o[6].channel typename "\"ned.IdealChannel\""
par RGG.node[31].port$o[6].channel typename "\"ned.IdealChannel\""
par RGG.node[52].port$o[7].channel typename "\"ned.IdealChannel\""
par RGG.node[31].port$o[7].channel typename "\"ned.IdealChannel\""
par RGG.node[53].port$o[7].channel typename "\"ned.IdealChannel\""
par RGG.node[31].port$o[8].channel typename "\"ned.IdealChannel\""
par RGG.node[54].port$o[7].channel typename "\"ned.IdealChannel\""
par RGG.node[31].port$o[9].channel typename "\"ned.IdealChannel\""
par RGG.node[58].port$o[5].channel typename "\"ned.IdealChannel\""
par RGG.node[31].port$o[10].channel typename "\"ned.IdealChannel\""
par RGG.node[82].port$o[7].channel typename "\"ned.IdealChannel\""
par RGG.node[31].port$o[11].channel typename "\"ned.IdealChannel\""
par RGG.node[90].port$o[4].channel typename "\"ned.IdealChannel\""
par RGG.node[31].port$o[12].channel typename "\"ned.IdealChannel\""
par RGG.node[98].port$o[6].channel typename "\"ned.IdealChannel\""
par RGG.node[32].port$o[1].channel typename "\"ned.IdealChannel\""
par RGG.node[37].port$o[2].channel typename "\"ned.IdealChannel\""
par RGG.node[32].port$o[2].channel typename "\"ned.IdealChannel\""
par RGG.node[39].port$o[2].channel typename "\"ned.IdealChannel\""
par RGG.node[32].port$o[3].channel typename "\"ned.IdealChannel\""
par RGG.node[62].port$o[3].channel typename "\"ned.IdealChannel\""
par RGG.node[32].port$o[4].channel typename "\"ned.IdealChannel\""
par RGG.node[64].port$o[1].channel typename "\"ned.IdealChannel\""
par RGG.node[32].port$o[5].channel typename "\"ned.IdealChannel\""
par RGG.node[66].port$o[1].channel typename "\"ned.IdealChannel\""
par RGG.node[32].port$o[6].channel typename "\"ned.IdealChannel\""
par RGG.node[76].port$o[2].channel typename "\"ned.IdealChannel\""
par RGG.node[32].port$o[7].channel typename "\"ned.IdealChannel\""
par RGG.node[77].port$o[3].channel typename "\"ned.IdealChannel\""
par RGG.node[32].port$o[8].channel typename "\"ned.IdealChannel\""
par RGG.node[89].port$o[2].channel typename "\"ned.IdealChannel\""
par RGG.node[32].port$o[9].channel typename "\"ned.IdealChannel\""
par RGG.node[91].port$o[1].channel typename "\"ned.IdealChannel\""
par RGG.node[32].port$o[10].channel typename "\"ned.IdealChannel\""
par RGG.node[94].port$o[2].channel typename "\"ned.IdealChannel\""
par RGG.node[33].port$o[6].channel typename "\"ned.IdealChannel\""
par RGG.node[38].port$o[6].channel typename "\"ned.IdealChannel\""
par RGG.node[33].port$o[7].channel typename "\"ned.IdealChannel\""
par RGG.node[55].port$o[5].channel typename "\"ned.IdealChannel\""
par RGG.node[33].port$o[8].channel typename "\"ned.IdealChannel\""
par RGG.node[60].port$o[9].channel typename "\"ned.IdealChannel\""
par RGG.node[33].port$o[9].channel typename "\"ned.IdealChannel\""
par RGG.node[65].port$o[9].channel typename "\"ned.IdealChannel\""
par RGG.node[33].port$o[10].channel typename "\"ned.IdealChannel\""
par RGG.node[70].port$o[5].channel typename "\"ned.IdealChannel\""
par RGG.node[33].port$o[11].channel typename "\"ned.IdealChannel\""
par RGG.node[73].port$o[6].channel typename "\"ned.IdealChannel\""
par RGG.node[34].port$o[6].channel typename "\"ned.IdealChannel\""
par RGG.node[42].port$o[7].channel typename "\"ned.IdealChannel\""
par RGG.node[34].port$o[7].channel typename "\"ned.IdealChannel\""
par RGG.node[49].port$o[6].channel typename "\"ned.IdealChannel\""
par RGG.node[34].port$o[8].channel typename "\"ned.IdealChannel\""
par RGG.node[56].port$o[6].channel typename "\"ned.IdealChannel\""
par RGG.node[34].port$o[9].channel typename "\"ned.IdealChannel\""
par RGG.node[57].port$o[6].channel typename "\"ned.IdealChannel\""
par RGG.node[34].port$o[10].channel typename "\"ned.IdealChannel\""
par RGG.node[59].port$o[7].channel typename "\"ned.IdealChannel\""
par RGG.node[34].port$o[11].channel typename "\"ned.IdealChannel\""
par RGG.node[68].port$o[4].channel typename "\"ned.IdealChannel\""
par RGG.node[34].port$o[12].channel typename "\"ned.IdealChannel\""
par RGG.node[85].port$o[5].channel typename "\"ned.IdealChannel\""
par RGG.node[34].port$o[13].channel typename "\"ned.IdealChannel\""
par RGG.node[87].port$o[9].channel typename "\"ned.IdealChannel\""
par RGG.node[34].port$o[14].channel typename "\"ned.IdealChannel\""
par RGG.node[95].port$o[9].channel typename "\"ned.IdealChannel\""
par RGG.node[35].port$o[3].channel typename "\"ned.IdealChannel\""
par RGG.node[62].port$o[4].channel typename "\"ned.IdealChannel\""
par RGG.node[35].port$o[4].channel typename "\"ned.IdealChannel\""
par RGG.node[63].port$o[3].channel typename "\"ned.IdealChannel\""
par RGG.node[35].port$o[5].channel typename "\"ned.IdealChannel\""
par RGG.node[64].port$o[2].channel typename "\"ned.IdealChannel\""
par RGG.node[35].port$o[6].channel typename "\"ned.IdealChannel\""
par RGG.node[80].port$o[6].channel typename "\"ned.IdealChannel\""
par RGG.node[36].port$o[7].channel typename "\"ned.IdealChannel\""
par RGG.node[38].port$o[7].channel typename "\"ned.IdealChannel\""
par RGG.node[36].port$o[8].channel typename "\"ned.IdealChannel\""
par RGG.node[48].port$o[4].channel typename "\"ned.IdealChannel\""
par RGG.node[36].port$o[9].channel typename "\"ned.IdealChannel\""
par RGG.node[53].port$o[8].channel typename "\"ned.IdealChannel\""
par RGG.node[36].port$o[10].channel typename "\"ned.IdealChannel\""
par RGG.node[59].port$o[8].channel typename "\"ned.IdealChannel\""
par RGG.node[36].port$o[11].channel typename "\"ned.IdealChannel\""
par RGG.node[60].port$o[10].channel typename "\"ned.IdealChannel\""
par RGG.node[36].port$o[12].channel typename "\"ned.IdealChannel\""
par RGG.node[65].port$o[10].channel typename "\"ned.IdealChannel\""
par RGG.node[36].port$o[13].channel typename "\"ned.IdealChannel\""
par RGG.node[72].port$o[5].channel typename "\"ned.IdealChannel\""
par RGG.node[36].port$o[14].channel typename "\"ned.IdealChannel\""
par RGG.node[78].port$o[6].channel typename "\"ned.IdealChannel\""
par RGG.node[36].port$o[15].channel typename "\"ned.IdealChannel\""
par RGG.node[79].port$o[9].channel typename "\"ned.IdealChannel\""
par RGG.node[36].port$o[16].channel typename "\"ned.IdealChannel\""
par RGG.node[81].port$o[6].channel typename "\"ned.IdealChannel\""
par RGG.node[36].port$o[17].channel typename "\"ned.IdealChannel\""
par RGG.node[87].port$o[10].channel typename "\"ned.IdealChannel\""
par RGG.node[36].port$o[18].channel typename "\"ned.IdealChannel\""
par RGG.node[93].port$o[7].channel typename "\"ned.IdealChannel\""
par RGG.node[36].port$o[19].channel typename "\"ned.IdealChannel\""
par RGG.node[95].port$o[10].channel typename "\"ned.IdealChannel\""
par RGG.node[36].port$o[20].channel typename "\"ned.IdealChannel\""
par RGG.node[97].port$o[7].channel typename "\"ned.IdealChannel\""
par RGG.node[36].port$o[21].channel typename "\"ned.IdealChannel\""
par RGG.node[98].port$o[7].channel typename "\"ned.IdealChannel\""
par RGG.node[37].port$o[3].channel typename "\"ned.IdealChannel\""
par RGG.node[39].port$o[3].channel typename "\"ned.IdealChannel\""
par RGG.node[37].port$o[4].channel typename "\"ned.IdealChannel\""
par RGG.node[61].port$o[4].channel typename "\"ned.IdealChannel\""
par RGG.node[37].port$o[5].channel typename "\"ned.IdealChannel\""
par RGG.node[62].port$o[5].channel typename "\"ned.IdealChannel\""
par RGG.node[37].port$o[6].channel typename "\"ned.IdealChannel\""
par RGG.node[66].port$o[2].channel typename "\"ned.IdealChannel\""
par RGG.node[37].port$o[7].channel typename "\"ned.IdealChannel\""
par RGG.node[76].port$o[3].channel typename "\"ned.IdealChannel\""
par RGG.node[37].port$o[8].channel typename "\"ned.IdealChannel\""
par RGG.node[77].port$o[4].channel typename "\"ned.IdealChannel\""
par RGG.node[37].port$o[9].channel typename "\"ned.IdealChannel\""
par RGG.node[89].port$o[3].channel typename "\"ned.IdealChannel\""
par RGG.node[37].port$o[10].channel typename "\"ned.IdealChannel\""
par RGG.node[91].port$o[2].channel typename "\"ned.IdealChannel\""
par RGG.node[37].port$o[11].channel typename "\"ned.IdealChannel\""
par RGG.node[92].port$o[3].channel typename "\"ned.IdealChannel\""
par RGG.node[37].port$o[12].channel typename "\"ned.IdealChannel\""
par RGG.node[94].port$o[3].channel typename "\"ned.IdealChannel\""
par RGG.node[38].port$o[8].channel typename "\"ned.IdealChannel\""
par RGG.node[40].port$o[3].channel typename "\"ned.IdealChannel\""
par RGG.node[38].port$o[9].channel typename "\"ned.IdealChannel\""
par RGG.node[48].port$o[5].channel typename "\"ned.IdealChannel\""
par RGG.node[38].port$o[10].channel typename "\"ned.IdealChannel\""
par RGG.node[60].port$o[11].channel typename "\"ned.IdealChannel\""
par RGG.node[38].port$o[11].channel typename "\"ned.IdealChannel\""
par RGG.node[70].port$o[6].channel typename "\"ned.IdealChannel\""
par RGG.node[38].port$o[12].channel typename "\"ned.IdealChannel\""
par RGG.node[72].port$o[6].channel typename "\"ned.IdealChannel\""
par RGG.node[38].port$o[13].channel typename "\"ned.IdealChannel\""
par RGG.node[73].port$o[7].channel typename "\"ned.IdealChannel\""
par RGG.node[38].port$o[14].channel typename "\"ned.IdealChannel\""
par RGG.node[75].port$o[2].channel typename "\"ned.IdealChannel\""
par RGG.node[38].port$o[15].channel typename "\"ned.IdealChannel\""
par RGG.node[78].port$o[7].channel typename "\"ned.IdealChannel\""
par RGG.node[39].port$o[4].channel typename "\"ned.IdealChannel\""
par RGG.node[62].port$o[6].channel typename "\"ned.IdealChannel\""
par RGG.node[39].port$o[5].channel typename "\"ned.IdealChannel\""
par RGG.node[66].port$o[3].channel typename "\"ned.IdealChannel\""
par RGG.node[39].port$o[6].channel typename "\"ned.IdealChannel\""
par RGG.node[76].port$o[4].channel typename "\"ned.IdealChannel\""
par RGG.node[39].port$o[7].channel typename "\"ned.IdealChannel\""
par RGG.node[77].port$o[5].channel typename "\"ned.IdealChannel\""
par RGG.node[39].port$o[8].channel typename "\"ned.IdealChannel\""
par RGG.node[89].port$o[4].channel typename "\"ned.IdealChannel\""
par RGG.node[39].port$o[9].channel typename "\"ned.IdealChannel\""
par RGG.node[91].port$o[3].channel typename "\"ned.IdealChannel\""
par RGG.node[39].port$o[10].channel typename "\"ned.IdealChannel\""
par RGG.node[92].port$o[4].channel typename "\"ned.IdealChannel\""
par RGG.node[39].port$o[11].channel typename "\"ned.IdealChannel\""
par RGG.node[94].port$o[4].channel typename "\"ned.IdealChannel\""
par RGG.node[40].port$o[4].channel typename "\"ned.IdealChannel\""
par RGG.node[45].port$o[1].channel typename "\"ned.IdealChannel\""
par RGG.node[40].port$o[5].channel typename "\"ned.IdealChannel\""
par RGG.node[48].port$o[6].channel typename "\"ned.IdealChannel\""
par RGG.node[40].port$o[6].channel typename "\"ned.IdealChannel\""
par RGG.node[72].port$o[7].channel typename "\"ned.IdealChannel\""
par RGG.node[40].port$o[7].channel typename "\"ned.IdealChannel\""
par RGG.node[73].port$o[8].channel typename "\"ned.IdealChannel\""
par RGG.node[40].port$o[8].channel typename "\"ned.IdealChannel\""
par RGG.node[75].port$o[3].channel typename "\"ned.IdealChannel\""
par RGG.node[40].port$o[9].channel typename "\"ned.IdealChannel\""
par RGG.node[78].port$o[8].channel typename "\"ned.IdealChannel\""
par RGG.node[40].port$o[10].channel typename "\"ned.IdealChannel\""
par RGG.node[81].port$o[7].channel typename "\"ned.IdealChannel\""
par RGG.node[41].port$o[0].channel typename "\"ned.IdealChannel\""
par RGG.node[50].port$o[1].channel typename "\"ned.IdealChannel\""
par RGG.node[41].port$o[1].channel typename "\"ned.IdealChannel\""
par RGG.node[74].port$o[2].channel typename "\"ned.IdealChannel\""
par RGG.node[41].port$o[2].channel typename "\"ned.IdealChannel\""
par RGG.node[86].port$o[2].channel typename "\"ned.IdealChannel\""
par RGG.node[42].port$o[8].channel typename "\"ned.IdealChannel\""
par RGG.node[54].port$o[8].channel typename "\"ned.IdealChannel\""
par RGG.node[42].port$o[9].channel typename "\"ned.IdealChannel\""
par RGG.node[59].port$o[9].channel typename "\"ned.IdealChannel\""
par RGG.node[42].port$o[10].channel typename "\"ned.IdealChannel\""
par RGG.node[68].port$o[5].channel typename "\"ned.IdealChannel\""
par RGG.node[42].port$o[11].channel typename "\"ned.IdealChannel\""
par RGG.node[82].port$o[8].channel typename "\"ned.IdealChannel\""
par RGG.node[42].port$o[12].channel typename "\"ned.IdealChannel\""
par RGG.node[85].port$o[6].channel typename "\"ned.IdealChannel\""
par RGG.node[42].port$o[13].channel typename "\"ned.IdealChannel\""
par RGG.node[87].port$o[11].channel typename "\"ned.IdealChannel\""
par RGG.node[42].port$o[14].channel typename "\"ned.IdealChannel\""
par RGG.node[95].port$o[11].channel typename "\"ned.IdealChannel\""
par RGG.node[43].port$o[6].channel typename "\"ned.IdealChannel\""
par RGG.node[44].port$o[7].channel typename "\"ned.IdealChannel\""
par RGG.node[43].port$o[7].channel typename "\"ned.IdealChannel\""
par RGG.node[55].port$o[6].channel typename "\"ned.IdealChannel\""
par RGG.node[43].port$o[8].channel typename "\"ned.IdealChannel\""
par RGG.node[56].port$o[7].channel typename "\"ned.IdealChannel\""
par RGG.node[43].port$o[9].channel typename "\"ned.IdealChannel\""
par RGG.node[59].port$o[10].channel typename "\"ned.IdealChannel\""
par RGG.node[43].port$o[10].channel typename "\"ned.IdealChannel\""
par RGG.node[60].port$o[12].channel typename "\"ned.IdealChannel\""
par RGG.node[43].port$o[11].channel typename "\"ned.IdealChannel\""
par RGG.node[65].port$o[11].channel typename "\"ned.IdealChannel\""
par RGG.node[43].port$o[12].channel typename "\"ned.IdealChannel\""
par RGG.node[69].port$o[3].channel typename "\"ned.IdealChannel\""
par RGG.node[43].port$o[13].channel typename "\"ned.IdealChannel\""
par RGG.node[70].port$o[7].channel typename "\"ned.IdealChannel\""
par RGG.node[44].port$o[8].channel typename "\"ned.IdealChannel\""
par RGG.node[49].port$o[7].channel typename "\"ned.IdealChannel\""
par RGG.node[44].port$o[9].channel typename "\"ned.IdealChannel\""
par RGG.node[55].port$o[7].channel typename "\"ned.IdealChannel\""
par RGG.node[44].port$o[10].channel typename "\"ned.IdealChannel\""
par RGG.node[56].port$o[8].channel typename "\"ned.IdealChannel\""
par RGG.node[44].port$o[11].channel typename "\"ned.IdealChannel\""
par RGG.node[57].port$o[7].channel typename "\"ned.IdealChannel\""
par RGG.node[44].port$o[12].channel typename "\"ned.IdealChannel\""
par RGG.node[65].port$o[12].channel typename "\"ned.IdealChannel\""
par RGG.node[44].port$o[13].channel typename "\"ned.IdealChannel\""
par RGG.node[67].port$o[3].channel typename "\"ned.IdealChannel\""
par RGG.node[44].port$o[14].channel typename "\"ned.IdealChannel\""
par RGG.node[69].port$o[4].channel typename "\"ned.IdealChannel\""
par RGG.node[44].port$o[15].channel typename "\"ned.IdealChannel\""
par RGG.node[74].port$o[3].channel typename "\"ned.IdealChannel\""
par RGG.node[44].port$o[16].channel typename "\"ned.IdealChannel\""
par RGG.node[86].port$o[3].channel typename "\"ned.IdealChannel\""
par RGG.node[45].port$o[2].channel typename "\"ned.IdealChannel\""
par RGG.node[48].port$o[7].channel typename "\"ned.IdealChannel\""
par RGG.node[45].port$o[3].channel typename "\"ned.IdealChannel\""
par RGG.node[72].port$o[8].channel typename "\"ned.IdealChannel\""
par RGG.node[45].port$o[4].channel typename "\"ned.IdealChannel\""
par RGG.node[75].port$o[4].channel typename "\"ned.IdealChannel\""
par RGG.node[45].port$o[5].channel typename "\"ned.IdealChannel\""
par RGG.node[78].port$o[9].channel typename "\"ned.IdealChannel\""
par RGG.node[46].port$o[3].channel typename "\"ned.IdealChannel\""
par RGG.node[52].port$o[8].channel typename "\"ned.IdealChannel\""
par RGG.node[46].port$o[4].channel typename "\"ned.IdealChannel\""
par RGG.node[84].port$o[4].channel typename "\"ned.IdealChannel\""
par RGG.node[47].port$o[1].channel typename "\"ned.IdealChannel\""
par RGG.node[61].port$o[5].channel typename "\"ned.IdealChannel\""
par RGG.node[47].port$o[2].channel typename "\"ned.IdealChannel\""
par RGG.node[71].port$o[4].channel typename "\"ned.IdealChannel\""
par RGG.node[47].port$o[3].channel typename "\"ned.IdealChannel\""
par RGG.node[74].port$o[4].channel typename "\"ned.IdealChannel\""
par RGG.node[47].port$o[4].channel typename "\"ned.IdealChannel\""
par RGG.node[83].port$o[5].channel typename "\"ned.IdealChannel\""
par RGG.node[47].port$o[5].channel typename "\"ned.IdealChannel\""
par RGG.node[88].port$o[3].channel typename "\"ned.IdealChannel\""
par RGG.node[47].port$o[6].channel typename "\"ned.IdealChannel\""
par RGG.node[96].port$o[4].channel typename "\"ned.IdealChannel\""
par RGG.node[48].port$o[8].channel typename "\"ned.IdealChannel\""
par RGG.node[72].port$o[9].channel typename "\"ned.IdealChannel\""
par RGG.node[48].port$o[9].channel typename "\"ned.IdealChannel\""
par RGG.node[75].port$o[5].channel typename "\"ned.IdealChannel\""
par RGG.node[48].port$o[10].channel typename "\"ned.IdealChannel\""
par RGG.node[78].port$o[10].channel typename "\"ned.IdealChannel\""
par RGG.node[48].port$o[11].channel typename "\"ned.IdealChannel\""
par RGG.node[81].port$o[8].channel typename "\"ned.IdealChannel\""
par RGG.node[48].port$o[12].channel typename "\"ned.IdealChannel\""
par RGG.node[93].port$o[8].channel typename "\"ned.IdealChannel\""
par RGG.node[48].port$o[13].channel typename "\"ned.IdealChannel\""
par RGG.node[97].port$o[8].channel typename "\"ned.IdealChannel\""
par RGG.node[49].port$o[8].channel typename "\"ned.IdealChannel\""
par RGG.node[56].port$o[9].channel typename "\"ned.IdealChannel\""
par RGG.node[49].port$o[9].channel typename "\"ned.IdealChannel\""
par RGG.node[57].port$o[8].channel typename "\"ned.IdealChannel\""
par RGG.node[49].port$o[10].channel typename "\"ned.IdealChannel\""
par RGG.node[59].port$o[11].channel typename "\"ned.IdealChannel\""
par RGG.node[49].port$o[11].channel typename "\"ned.IdealChannel\""
par RGG.node[67].port$o[4].channel typename "\"ned.IdealChannel\""
par RGG.node[49].port$o[12].channel typename "\"ned.IdealChannel\""
par RGG.node[83].port$o[6].channel typename "\"ned.IdealChannel\""
par RGG.node[49].port$o[13].channel typename "\"ned.IdealChannel\""
par RGG.node[85].port$o[7].channel typename "\"ned.IdealChannel\""
par RGG.node[50].port$o[2].channel typename "\"ned.IdealChannel\""
par RGG.node[69].port$o[5].channel typename "\"ned.IdealChannel\""
par RGG.node[50].port$o[3].channel typename "\"ned.IdealChannel\""
par RGG.node[74].port$o[5].channel typename "\"ned.IdealChannel\""
par RGG.node[50].port$o[4].channel typename "\"ned.IdealChannel\""
par RGG.node[86].port$o[4].channel typename "\"ned.IdealChannel\""
par RGG.node[51].port$o[7].channel typename "\"ned.IdealChannel\""
par RGG.node[53].port$o[9].channel typename "\"ned.IdealChannel\""
par RGG.node[51].port$o[8].channel typename "\"ned.IdealChannel\""
par RGG.node[54].port$o[9].channel typename "\"ned.IdealChannel\""
par RGG.node[51].port$o[9].channel typename "\"ned.IdealChannel\""
par RGG.node[58].port$o[6].channel typename "\"ned.IdealChannel\""
par RGG.node[51].port$o[10].channel typename "\"ned.IdealChannel\""
par RGG.node[81].port$o[9].channel typename "\"ned.IdealChannel\""
par RGG.node[51].port$o[11].channel typename "\"ned.IdealChannel\""
par RGG.node[82].port$o[9].channel typename "\"ned.IdealChannel\""
par RGG.node[51].port$o[12].channel typename "\"ned.IdealChannel\""
par RGG.node[90].port$o[5].channel typename "\"ned.IdealChannel\""
par RGG.node[51].port$o[13].channel typename "\"ned.IdealChannel\""
par RGG.node[93].port$o[9].channel typename "\"ned.IdealChannel\""
par RGG.node[51].port$o[14].channel typename "\"ned.IdealChannel\""
par RGG.node[95].port$o[12].channel typename "\"ned.IdealChannel\""
par RGG.node[51].port$o[15].channel typename "\"ned.IdealChannel\""
par RGG.node[97].port$o[9].channel typename "\"ned.IdealChannel\""
par RGG.node[51].port$o[16].channel typename "\"ned.IdealChannel\""
par RGG.node[98].port$o[8].channel typename "\"ned.IdealChannel\""
par RGG.node[52].port$o[9].channel typename "\"ned.IdealChannel\""
par RGG.node[54].port$o[10].channel typename "\"ned.IdealChannel\""
par RGG.node[52].port$o[10].channel typename "\"ned.IdealChannel\""
par RGG.node[58].port$o[7].channel typename "\"ned.IdealChannel\""
par RGG.node[52].port$o[11].channel typename "\"ned.IdealChannel\""
par RGG.node[82].port$o[10].channel typename "\"ned.IdealChannel\""
par RGG.node[52].port$o[12].channel typename "\"ned.IdealChannel\""
par RGG.node[84].port$o[5].channel typename "\"ned.IdealChannel\""
par RGG.node[52].port$o[13].channel typename "\"ned.IdealChannel\""
par RGG.node[90].port$o[6].channel typename "\"ned.IdealChannel\""
par RGG.node[53].port$o[10].channel typename "\"ned.IdealChannel\""
par RGG.node[54].port$o[11].channel typename "\"ned.IdealChannel\""
par RGG.node[53].port$o[11].channel typename "\"ned.IdealChannel\""
par RGG.node[58].port$o[8].channel typename "\"ned.IdealChannel\""
par RGG.node[53].port$o[12].channel typename "\"ned.IdealChannel\""
par RGG.node[59].port$o[12].channel typename "\"ned.IdealChannel\""
par RGG.node[53].port$o[13].channel typename "\"ned.IdealChannel\""
par RGG.node[72].port$o[10].channel typename "\"ned.IdealChannel\""
par RGG.node[53].port$o[14].channel typename "\"ned.IdealChannel\""
par RGG.node[78].port$o[11].channel typename "\"ned.IdealChannel\""
par RGG.node[53].port$o[15].channel typename "\"ned.IdealChannel\""
par RGG.node[79].port$o[10].channel typename "\"ned.IdealChannel\""
par RGG.node[53].port$o[16].channel typename "\"ned.IdealChannel\""
par RGG.node[81].port$o[10].channel typename "\"ned.IdealChannel\""
par RGG.node[53].port$o[17].channel typename "\"ned.IdealChannel\""
par RGG.node[82].port$o[11].channel typename "\"ned.IdealChannel\""
par RGG.node[53].port$o[18].channel typename "\"ned.IdealChannel\""
par RGG.node[87].port$o[12].channel typename "\"ned.IdealChannel\""
par RGG.node[53].port$o[19].channel typename "\"ned.IdealChannel\""
par RGG.node[90].port$o[7].channel typename "\"ned.IdealChannel\""
par RGG.node[53].port$o[20].channel typename "\"ned.IdealChannel\""
par RGG.node[93].port$o[10].channel typename "\"ned.IdealChannel\""
par RGG.node[53].port$o[21].channel typename "\"ned.IdealChannel\""
par RGG.node[95].port$o[13].channel typename "\"ned.IdealChannel\""
par RGG.node[53].port$o[22].channel typename "\"ned.IdealChannel\""
par RGG.node[97].port$o[10].channel typename "\"ned.IdealChannel\""
par RGG.node[53].port$o[23].channel typename "\"ned.IdealChannel\""
par RGG.node[98].port$o[9].channel typename "\"ned.IdealChannel\""
par RGG.node[54].port$o[12].channel typename "\"ned.IdealChannel\""
par RGG.node[58].port$o[9].channel typename "\"ned.IdealChannel\""
par RGG.node[54].port$o[13].channel typename "\"ned.IdealChannel\""
par RGG.node[82].port$o[12].channel typename "\"ned.IdealChannel\""
par RGG.node[54].port$o[14].channel typename "\"ned.IdealChannel\""
par RGG.node[90].port$o[8].channel typename "\"ned.IdealChannel\""
par RGG.node[54].port$o[15].channel typename "\"ned.IdealChannel\""
par RGG.node[95].port$o[14].channel typename "\"ned.IdealChannel\""
par RGG.node[54].port$o[16].channel typename "\"ned.IdealChannel\""
par RGG.node[98].port$o[10].channel typename "\"ned.IdealChannel\""
par RGG.node[55].port$o[8].channel typename "\"ned.IdealChannel\""
par RGG.node[60].port$o[13].channel typename "\"ned.IdealChannel\""
par RGG.node[55].port$o[9].channel typename "\"ned.IdealChannel\""
par RGG.node[65].port$o[13].channel typename "\"ned.IdealChannel\""
par RGG.node[55].port$o[10].channel typename "\"ned.IdealChannel\""
par RGG.node[69].port$o[6].channel typename "\"ned.IdealChannel\""
par RGG.node[55].port$o[11].channel typename "\"ned.IdealChannel\""
par RGG.node[70].port$o[8].channel typename "\"ned.IdealChannel\""
par RGG.node[55].port$o[12].channel typename "\"ned.IdealChannel\""
par RGG.node[86].port$o[5].channel typename "\"ned.IdealChannel\""
par RGG.node[56].port$o[10].channel typename "\"ned.IdealChannel\""
par RGG.node[57].port$o[9].channel typename "\"ned.IdealChannel\""
par RGG.node[56].port$o[11].channel typename "\"ned.IdealChannel\""
par RGG.node[59].port$o[13].channel typename "\"ned.IdealChannel\""
par RGG.node[56].port$o[12].channel typename "\"ned.IdealChannel\""
par RGG.node[65].port$o[14].channel typename "\"ned.IdealChannel\""
par RGG.node[56].port$o[13].channel typename "\"ned.IdealChannel\""
par RGG.node[67].port$o[5].channel typename "\"ned.IdealChannel\""
par RGG.node[56].port$o[14].channel typename "\"ned.IdealChannel\""
par RGG.node[85].port$o[8].channel typename "\"ned.IdealChannel\""
par RGG.node[56].port$o[15].channel typename "\"ned.IdealChannel\""
par RGG.node[87].port$o[13].channel typename "\"ned.IdealChannel\""
par RGG.node[57].port$o[10].channel typename "\"ned.IdealChannel\""
par RGG.node[59].port$o[14].channel typename "\"ned.IdealChannel\""
par RGG.node[57].port$o[11].channel typename "\"ned.IdealChannel\""
par RGG.node[67].port$o[6].channel typename "\"ned.IdealChannel\""
par RGG.node[57].port$o[12].channel typename "\"ned.IdealChannel\""
par RGG.node[83].port$o[7].channel typename "\"ned.IdealChannel\""
par RGG.node[57].port$o[13].channel typename "\"ned.IdealChannel\""
par RGG.node[96].port$o[5].channel typename "\"ned.IdealChannel\""
par RGG.node[58].port$o[10].channel typename "\"ned.IdealChannel\""
par RGG.node[82].port$o[13].channel typename "\"ned.IdealChannel\""
par RGG.node[58].port$o[11].channel typename "\"ned.IdealChannel\""
par RGG.node[90].port$o[9].channel typename "\"ned.IdealChannel\""
par RGG.node[59].port$o[15].channel typename "\"ned.IdealChannel\""
par RGG.node[60].port$o[14].channel typename "\"ned.IdealChannel\""
par RGG.node[59].port$o[16].channel typename "\"ned.IdealChannel\""
par RGG.node[65].port$o[15].channel typename "\"ned.IdealChannel\""
par RGG.node[59].port$o[17].channel typename "\"ned.IdealChannel\""
par RGG.node[79].port$o[11].channel typename "\"ned.IdealChannel\""
par RGG.node[59].port$o[18].channel typename "\"ned.IdealChannel\""
par RGG.node[85].port$o[9].channel typename "\"ned.IdealChannel\""
par RGG.node[59].port$o[19].channel typename "\"ned.IdealChannel\""
par RGG.node[87].port$o[14].channel typename "\"ned.IdealChannel\""
par RGG.node[59].port$o[20].channel typename "\"ned.IdealChannel\""
par RGG.node[93].port$o[11].channel typename "\"ned.IdealChannel\""
par RGG.node[59].port$o[21].channel typename "\"ned.IdealChannel\""
par RGG.node[95].port$o[15].channel typename "\"ned.IdealChannel\""
par RGG.node[60].port$o[15].channel typename "\"ned.IdealChannel\""
par RGG.node[65].port$o[16].channel typename "\"ned.IdealChannel\""
par RGG.node[60].port$o[16].channel typename "\"ned.IdealChannel\""
par RGG.node[70].port$o[9].channel typename "\"ned.IdealChannel\""
par RGG.node[60].port$o[17].channel typename "\"ned.IdealChannel\""
par RGG.node[73].port$o[9].channel typename "\"ned.IdealChannel\""
par RGG.node[60].port$o[18].channel typename "\"ned.IdealChannel\""
[...]
par RGG.node[75].port$o[6].channel typename "\"ned.IdealChannel\""
par RGG.node[72].port$o[12].channel typename "\"ned.IdealChannel\""
par RGG.node[78].port$o[12].channel typename "\"ned.IdealChannel\""
par RGG.node[72].port$o[13].channel typename "\"ned.IdealChannel\""
par RGG.node[79].port$o[14].channel typename "\"ned.IdealChannel\""
par RGG.node[72].port$o[14].channel typename "\"ned.IdealChannel\""
par RGG.node[81].port$o[12].channel typename "\"ned.IdealChannel\""
par RGG.node[72].port$o[15].channel typename "\"ned.IdealChannel\""
par RGG.node[93].port$o[14].channel typename "\"ned.IdealChannel\""
par RGG.node[72].port$o[16].channel typename "\"ned.IdealChannel\""
par RGG.node[97].port$o[12].channel typename "\"ned.IdealChannel\""
par RGG.node[72].port$o[17].channel typename "\"ned.IdealChannel\""
par RGG.node[98].port$o[11].channel typename "\"ned.IdealChannel\""
par RGG.node[74].port$o[8].channel typename "\"ned.IdealChannel\""
par RGG.node[86].port$o[7].channel typename "\"ned.IdealChannel\""
par RGG.node[74].port$o[9].channel typename "\"ned.IdealChannel\""
par RGG.node[88].port$o[7].channel typename "\"ned.IdealChannel\""
par RGG.node[75].port$o[7].channel typename "\"ned.IdealChannel\""
par RGG.node[78].port$o[13].channel typename "\"ned.IdealChannel\""
par RGG.node[75].port$o[8].channel typename "\"ned.IdealChannel\""
par RGG.node[81].port$o[13].channel typename "\"ned.IdealChannel\""
par RGG.node[75].port$o[9].channel typename "\"ned.IdealChannel\""
par RGG.node[93].port$o[15].channel typename "\"ned.IdealChannel\""
par RGG.node[75].port$o[10].channel typename "\"ned.IdealChannel\""
par RGG.node[97].port$o[13].channel typename "\"ned.IdealChannel\""
par RGG.node[76].port$o[8].channel typename "\"ned.IdealChannel\""
par RGG.node[77].port$o[9].channel typename "\"ned.IdealChannel\""
par RGG.node[76].port$o[9].channel typename "\"ned.IdealChannel\""
par RGG.node[83].port$o[11].channel typename "\"ned.IdealChannel\""
par RGG.node[76].port$o[10].channel typename "\"ned.IdealChannel\""
par RGG.node[89].port$o[8].channel typename "\"ned.IdealChannel\""
par RGG.node[76].port$o[11].channel typename "\"ned.IdealChannel\""
par RGG.node[91].port$o[7].channel typename "\"ned.IdealChannel\""
par RGG.node[76].port$o[12].channel typename "\"ned.IdealChannel\""
par RGG.node[92].port$o[8].channel typename "\"ned.IdealChannel\""
par RGG.node[76].port$o[13].channel typename "\"ned.IdealChannel\""
par RGG.node[94].port$o[8].channel typename "\"ned.IdealChannel\""
par RGG.node[76].port$o[14].channel typename "\"ned.IdealChannel\""
par RGG.node[96].port$o[9].channel typename "\"ned.IdealChannel\""
par RGG.node[77].port$o[10].channel typename "\"ned.IdealChannel\""
par RGG.node[83].port$o[12].channel typename "\"ned.IdealChannel\""
par RGG.node[77].port$o[11].channel typename "\"ned.IdealChannel\""
par RGG.node[89].port$o[9].channel typename "\"ned.IdealChannel\""
par RGG.node[77].port$o[12].channel typename "\"ned.IdealChannel\""
par RGG.node[91].port$o[8].channel typename "\"ned.IdealChannel\""
par RGG.node[77].port$o[13].channel typename "\"ned.IdealChannel\""
par RGG.node[92].port$o[9].channel typename "\"ned.IdealChannel\""
par RGG.node[77].port$o[14].channel typename "\"ned.IdealChannel\""
par RGG.node[94].port$o[9].channel typename "\"ned.IdealChannel\""
par RGG.node[78].port$o[14].channel typename "\"ned.IdealChannel\""
par RGG.node[79].port$o[15].channel typename "\"ned.IdealChannel\""
par RGG.node[78].port$o[15].channel typename "\"ned.IdealChannel\""
par RGG.node[81].port$o[14].channel typename "\"ned.IdealChannel\""
par RGG.node[78].port$o[16].channel typename "\"ned.IdealChannel\""
par RGG.node[93].port$o[16].channel typename "\"ned.IdealChannel\""
par RGG.node[78].port$o[17].channel typename "\"ned.IdealChannel\""
par RGG.node[97].port$o[14].channel typename "\"ned.IdealChannel\""
par RGG.node[78].port$o[18].channel typename "\"ned.IdealChannel\""
par RGG.node[98].port$o[12].channel typename "\"ned.IdealChannel\""
par RGG.node[79].port$o[16].channel typename "\"ned.IdealChannel\""
par RGG.node[81].port$o[15].channel typename "\"ned.IdealChannel\""
par RGG.node[79].port$o[17].channel typename "\"ned.IdealChannel\""
par RGG.node[87].port$o[17].channel typename "\"ned.IdealChannel\""
par RGG.node[79].port$o[18].channel typename "\"ned.IdealChannel\""
par RGG.node[93].port$o[17].channel typename "\"ned.IdealChannel\""
par RGG.node[79].port$o[19].channel typename "\"ned.IdealChannel\""
par RGG.node[95].port$o[18].channel typename "\"ned.IdealChannel\""
par RGG.node[79].port$o[20].channel typename "\"ned.IdealChannel\""
par RGG.node[97].port$o[15].channel typename "\"ned.IdealChannel\""
par RGG.node[79].port$o[21].channel typename "\"ned.IdealChannel\""
par RGG.node[98].port$o[13].channel typename "\"ned.IdealChannel\""
par RGG.node[80].port$o[9].channel typename "\"ned.IdealChannel\""
par RGG.node[99].port$o[8].channel typename "\"ned.IdealChannel\""
par RGG.node[81].port$o[16].channel typename "\"ned.IdealChannel\""
par RGG.node[93].port$o[18].channel typename "\"ned.IdealChannel\""
par RGG.node[81].port$o[17].channel typename "\"ned.IdealChannel\""
par RGG.node[95].port$o[19].channel typename "\"ned.IdealChannel\""
par RGG.node[81].port$o[18].channel typename "\"ned.IdealChannel\""
par RGG.node[97].port$o[16].channel typename "\"ned.IdealChannel\""
par RGG.node[81].port$o[19].channel typename "\"ned.IdealChannel\""
par RGG.node[98].port$o[14].channel typename "\"ned.IdealChannel\""
par RGG.node[82].port$o[14].channel typename "\"ned.IdealChannel\""
par RGG.node[90].port$o[10].channel typename "\"ned.IdealChannel\""
par RGG.node[82].port$o[15].channel typename "\"ned.IdealChannel\""
par RGG.node[95].port$o[20].channel typename "\"ned.IdealChannel\""
par RGG.node[82].port$o[16].channel typename "\"ned.IdealChannel\""
par RGG.node[98].port$o[15].channel typename "\"ned.IdealChannel\""
par RGG.node[83].port$o[13].channel typename "\"ned.IdealChannel\""
par RGG.node[88].port$o[8].channel typename "\"ned.IdealChannel\""
par RGG.node[83].port$o[14].channel typename "\"ned.IdealChannel\""
par RGG.node[92].port$o[10].channel typename "\"ned.IdealChannel\""
par RGG.node[83].port$o[15].channel typename "\"ned.IdealChannel\""
par RGG.node[96].port$o[10].channel typename "\"ned.IdealChannel\""
par RGG.node[85].port$o[11].channel typename "\"ned.IdealChannel\""
par RGG.node[87].port$o[18].channel typename "\"ned.IdealChannel\""
par RGG.node[85].port$o[12].channel typename "\"ned.IdealChannel\""
par RGG.node[95].port$o[21].channel typename "\"ned.IdealChannel\""
par RGG.node[87].port$o[19].channel typename "\"ned.IdealChannel\""
par RGG.node[93].port$o[19].channel typename "\"ned.IdealChannel\""
par RGG.node[87].port$o[20].channel typename "\"ned.IdealChannel\""
par RGG.node[95].port$o[22].channel typename "\"ned.IdealChannel\""
par RGG.node[87].port$o[21].channel typename "\"ned.IdealChannel\""
par RGG.node[97].port$o[17].channel typename "\"ned.IdealChannel\""
par RGG.node[87].port$o[22].channel typename "\"ned.IdealChannel\""
par RGG.node[98].port$o[16].channel typename "\"ned.IdealChannel\""
par RGG.node[88].port$o[9].channel typename "\"ned.IdealChannel\""
par RGG.node[96].port$o[11].channel typename "\"ned.IdealChannel\""
par RGG.node[89].port$o[10].channel typename "\"ned.IdealChannel\""
par RGG.node[91].port$o[9].channel typename "\"ned.IdealChannel\""
par RGG.node[89].port$o[11].channel typename "\"ned.IdealChannel\""
par RGG.node[92].port$o[11].channel typename "\"ned.IdealChannel\""
par RGG.node[89].port$o[12].channel typename "\"ned.IdealChannel\""
par RGG.node[94].port$o[10].channel typename "\"ned.IdealChannel\""
par RGG.node[90].port$o[11].channel typename "\"ned.IdealChannel\""
par RGG.node[98].port$o[17].channel typename "\"ned.IdealChannel\""
par RGG.node[91].port$o[10].channel typename "\"ned.IdealChannel\""
par RGG.node[94].port$o[11].channel typename "\"ned.IdealChannel\""
par RGG.node[92].port$o[12].channel typename "\"ned.IdealChannel\""
par RGG.node[94].port$o[12].channel typename "\"ned.IdealChannel\""
par RGG.node[92].port$o[13].channel typename "\"ned.IdealChannel\""
par RGG.node[96].port$o[12].channel typename "\"ned.IdealChannel\""
par RGG.node[93].port$o[20].channel typename "\"ned.IdealChannel\""
par RGG.node[95].port$o[23].channel typename "\"ned.IdealChannel\""
par RGG.node[93].port$o[21].channel typename "\"ned.IdealChannel\""
par RGG.node[97].port$o[18].channel typename "\"ned.IdealChannel\""
par RGG.node[93].port$o[22].channel typename "\"ned.IdealChannel\""
par RGG.node[98].port$o[18].channel typename "\"ned.IdealChannel\""
par RGG.node[95].port$o[24].channel typename "\"ned.IdealChannel\""
par RGG.node[97].port$o[19].channel typename "\"ned.IdealChannel\""
par RGG.node[95].port$o[25].channel typename "\"ned.IdealChannel\""
par RGG.node[98].port$o[19].channel typename "\"ned.IdealChannel\""
par RGG.node[97].port$o[20].channel typename "\"ned.IdealChannel\""
par RGG.node[98].port$o[20].channel typename "\"ned.IdealChannel\""
par RGG.node[0] typename "\"randomw.Node\""
par RGG.node[0] xCor 0.31362
par RGG.node[0] yCor 0.901163
par RGG.node[1] typename "\"randomw.Node\""
par RGG.node[1] xCor 0.559
par RGG.node[1] yCor 0.419176
par RGG.node[2] typename "\"randomw.Node\""
par RGG.node[2] xCor 0.262435
par RGG.node[2] yCor 0.119432
par RGG.node[3] typename "\"randomw.Node\""
par RGG.node[3] xCor 0.187468
par RGG.node[3] yCor 0.549167
par RGG.node[4] typename "\"randomw.Node\""
par RGG.node[4] xCor 0.485913
par RGG.node[4] yCor 0.596533
par RGG.node[5] typename "\"randomw.Node\""
par RGG.node[5] xCor 0.818297
par RGG.node[5] yCor 0.357007
par RGG.node[6] typename "\"randomw.Node\""
par RGG.node[6] xCor 0.822582
par RGG.node[6] yCor 0.669834
par RGG.node[7] typename "\"randomw.Node\""
par RGG.node[7] xCor 0.78461
par RGG.node[7] yCor 0.26095
par RGG.node[8] typename "\"randomw.Node\""
par RGG.node[8] xCor 0.276247
par RGG.node[8] yCor 0.396049
par RGG.node[9] typename "\"randomw.Node\""
par RGG.node[9] xCor 0.37117
par RGG.node[9] yCor 0.0696341
par RGG.node[10] typename "\"randomw.Node\""
par RGG.node[10] xCor 0.170711
par RGG.node[10] yCor 0.305923
par RGG.node[11] typename "\"randomw.Node\""
par RGG.node[11] xCor 0.332977
par RGG.node[11] yCor 0.55094
par RGG.node[12] typename "\"randomw.Node\""
par RGG.node[12] xCor 0.502352
par RGG.node[12] yCor 0.95199
par RGG.node[13] typename "\"randomw.Node\""
par RGG.node[13] xCor 0.401171
par RGG.node[13] yCor 0.102709
par RGG.node[14] typename "\"randomw.Node\""
par RGG.node[14] xCor 0.0098003
par RGG.node[14] yCor 0.977855
par RGG.node[15] typename "\"randomw.Node\""
par RGG.node[15] xCor 0.634739
par RGG.node[15] yCor 0.154403
par RGG.node[16] typename "\"randomw.Node\""
par RGG.node[16] xCor 0.0636796
par RGG.node[16] yCor 0.295616
par RGG.node[17] typename "\"randomw.Node\""
par RGG.node[17] xCor 0.363573
par RGG.node[17] yCor 0.788717
par RGG.node[18] typename "\"randomw.Node\""
par RGG.node[18] xCor 0.596247
par RGG.node[18] yCor 0.960015
par RGG.node[19] typename "\"randomw.Node\""
par RGG.node[19] xCor 0.169433
par RGG.node[19] yCor 0.765256
par RGG.node[20] typename "\"randomw.Node\""
par RGG.node[20] xCor 0.711996
par RGG.node[20] yCor 0.495675
par RGG.node[21] typename "\"randomw.Node\""
par RGG.node[21] xCor 0.279578
par RGG.node[21] yCor 0.76651
par RGG.node[22] typename "\"randomw.Node\""
par RGG.node[22] xCor 0.267109
par RGG.node[22] yCor 0.706248
par RGG.node[23] typename "\"randomw.Node\""
par RGG.node[23] xCor 0.307573
par RGG.node[23] yCor 0.225277
par RGG.node[24] typename "\"randomw.Node\""
par RGG.node[24] xCor 0.0522044
par RGG.node[24] yCor 0.480468
par RGG.node[25] typename "\"randomw.Node\""
par RGG.node[25] xCor 0.141322
par RGG.node[25] yCor 0.0410714
par RGG.node[26] typename "\"randomw.Node\""
par RGG.node[26] xCor 0.312965
par RGG.node[26] yCor 0.0639196
par RGG.node[27] typename "\"randomw.Node\""
par RGG.node[27] xCor 0.466077
par RGG.node[27] yCor 0.525779
par RGG.node[28] typename "\"randomw.Node\""
par RGG.node[28] xCor 0.736595
par RGG.node[28] yCor 0.591554
par RGG.node[29] typename "\"randomw.Node\""
par RGG.node[29] xCor 0.487399
par RGG.node[29] yCor 0.877179
par RGG.node[30] typename "\"randomw.Node\""
par RGG.node[30] xCor 0.738084
par RGG.node[30] yCor 0.964619
par RGG.node[31] typename "\"randomw.Node\""
par RGG.node[31] xCor 0.0324755
par RGG.node[31] yCor 0.376506
par RGG.node[32] typename "\"randomw.Node\""
par RGG.node[32] xCor 0.961058
par RGG.node[32] yCor 0.113418
par RGG.node[33] typename "\"randomw.Node\""
par RGG.node[33] xCor 0.364686
par RGG.node[33] yCor 0.976212
par RGG.node[34] typename "\"randomw.Node\""
par RGG.node[34] xCor 0.483951
par RGG.node[34] yCor 0.49563
par RGG.node[35] typename "\"randomw.Node\""
par RGG.node[35] xCor 0.611034
par RGG.node[35] yCor 0.0078224
par RGG.node[36] typename "\"randomw.Node\""
par RGG.node[36] xCor 0.254358
par RGG.node[36] yCor 0.726056
par RGG.node[37] typename "\"randomw.Node\""
par RGG.node[37] xCor 0.905243
par RGG.node[37] yCor 0.230644
par RGG.node[38] typename "\"randomw.Node\""
par RGG.node[38] xCor 0.269694
par RGG.node[38] yCor 0.9571
par RGG.node[39] typename "\"randomw.Node\""
par RGG.node[39] xCor 0.932763
par RGG.node[39] yCor 0.18281
par RGG.node[40] typename "\"randomw.Node\""
par RGG.node[40] xCor 0.0811718
par RGG.node[40] yCor 0.963735
par RGG.node[41] typename "\"randomw.Node\""
par RGG.node[41] xCor 0.993968
par RGG.node[41] yCor 0.990318
par RGG.node[42] typename "\"randomw.Node\""
par RGG.node[42] xCor 0.356391
par RGG.node[42] yCor 0.377411
par RGG.node[43] typename "\"randomw.Node\""
par RGG.node[43] xCor 0.564021
par RGG.node[43] yCor 0.814371
par RGG.node[44] typename "\"randomw.Node\""
par RGG.node[44] xCor 0.632655
par RGG.node[44] yCor 0.793928
par RGG.node[45] typename "\"randomw.Node\""
par RGG.node[45] xCor 0.0114863
par RGG.node[45] yCor 0.966227
par RGG.node[46] typename "\"randomw.Node\""
par RGG.node[46] xCor 0.0437128
par RGG.node[46] yCor 0.0771276
par RGG.node[47] typename "\"randomw.Node\""
par RGG.node[47] xCor 0.987449
par RGG.node[47] yCor 0.640979
par RGG.node[48] typename "\"randomw.Node\""
par RGG.node[48] xCor 0.0703547
par RGG.node[48] yCor 0.879005
par RGG.node[49] typename "\"randomw.Node\""
par RGG.node[49] xCor 0.627392
par RGG.node[49] yCor 0.545001
par RGG.node[50] typename "\"randomw.Node\""
par RGG.node[50] xCor 0.863518
par RGG.node[50] yCor 0.984624
par RGG.node[51] typename "\"randomw.Node\""
par RGG.node[51] xCor 0.0861916
par RGG.node[51] yCor 0.513879
par RGG.node[52] typename "\"randomw.Node\""
par RGG.node[52] xCor 0.0929106
par RGG.node[52] yCor 0.255089
par RGG.node[53] typename "\"randomw.Node\""
par RGG.node[53] xCor 0.188814
par RGG.node[53] yCor 0.564571
par RGG.node[54] typename "\"randomw.Node\""
par RGG.node[54] xCor 0.184764
par RGG.node[54] yCor 0.375668
par RGG.node[55] typename "\"randomw.Node\""
par RGG.node[55] xCor 0.572064
par RGG.node[55] yCor 0.890699
par RGG.node[56] typename "\"randomw.Node\""
par RGG.node[56] xCor 0.553844
par RGG.node[56] yCor 0.583682
par RGG.node[57] typename "\"randomw.Node\""
par RGG.node[57] xCor 0.650429
par RGG.node[57] yCor 0.564744
par RGG.node[58] typename "\"randomw.Node\""
par RGG.node[58] xCor 0.0825563
par RGG.node[58] yCor 0.34524
par RGG.node[59] typename "\"randomw.Node\""
par RGG.node[59] xCor 0.430758
par RGG.node[59] yCor 0.613323
par RGG.node[60] typename "\"randomw.Node\""
par RGG.node[60] xCor 0.362424
par RGG.node[60] yCor 0.789867
par RGG.node[61] typename "\"randomw.Node\""
par RGG.node[61] xCor 0.901473
par RGG.node[61] yCor 0.431625
par RGG.node[62] typename "\"randomw.Node\""
par RGG.node[62] xCor 0.811617
par RGG.node[62] yCor 0.14257
par RGG.node[63] typename "\"randomw.Node\""
par RGG.node[63] xCor 0.570516
par RGG.node[63] yCor 0.0283735
par RGG.node[64] typename "\"randomw.Node\""
par RGG.node[64] xCor 0.734499
par RGG.node[64] yCor 0.0101508
par RGG.node[65] typename "\"randomw.Node\""
par RGG.node[65] xCor 0.421438
par RGG.node[65] yCor 0.754534
par RGG.node[66] typename "\"randomw.Node\""
par RGG.node[66] xCor 0.917643
par RGG.node[66] yCor 0.04941
par RGG.node[67] typename "\"randomw.Node\""
par RGG.node[67] xCor 0.740573
par RGG.node[67] yCor 0.598126
par RGG.node[68] typename "\"randomw.Node\""
par RGG.node[68] xCor 0.527195
par RGG.node[68] yCor 0.278236
par RGG.node[69] typename "\"randomw.Node\""
par RGG.node[69] xCor 0.771031
par RGG.node[69] yCor 0.845699
par RGG.node[70] typename "\"randomw.Node\""
par RGG.node[70] xCor 0.459801
par RGG.node[70] yCor 0.99003
par RGG.node[71] typename "\"randomw.Node\""
par RGG.node[71] xCor 0.90124
par RGG.node[71] yCor 0.560303
par RGG.node[72] typename "\"randomw.Node\""
par RGG.node[72] xCor 0.101186
par RGG.node[72] yCor 0.786488
par RGG.node[73] typename "\"randomw.Node\""
par RGG.node[73] xCor 0.302438
par RGG.node[73] yCor 0.974808
par RGG.node[74] typename "\"randomw.Node\""
par RGG.node[74] xCor 0.842336
par RGG.node[74] yCor 0.818866
par RGG.node[75] typename "\"randomw.Node\""
par RGG.node[75] xCor 0.0402511
par RGG.node[75] yCor 0.858147
par RGG.node[76] typename "\"randomw.Node\""
par RGG.node[76] xCor 0.919707
par RGG.node[76] yCor 0.313472
par RGG.node[77] typename "\"randomw.Node\""
par RGG.node[77] xCor 0.851755
par RGG.node[77] yCor 0.273463
par RGG.node[78] typename "\"randomw.Node\""
par RGG.node[78] xCor 0.100557
par RGG.node[78] yCor 0.775826
par RGG.node[79] typename "\"randomw.Node\""
par RGG.node[79] xCor 0.295962
par RGG.node[79] yCor 0.703801
par RGG.node[80] typename "\"randomw.Node\""
par RGG.node[80] xCor 0.427686
par RGG.node[80] yCor 0.13031
par RGG.node[81] typename "\"randomw.Node\""
par RGG.node[81] xCor 0.148797
par RGG.node[81] yCor 0.730919
par RGG.node[82] typename "\"randomw.Node\""
par RGG.node[82] xCor 0.155527
par RGG.node[82] yCor 0.384837
par RGG.node[83] typename "\"randomw.Node\""
par RGG.node[83] xCor 0.817505
par RGG.node[83] yCor 0.502259
par RGG.node[84] typename "\"randomw.Node\""
par RGG.node[84] xCor 0.0938042
par RGG.node[84] yCor 0.06218
par RGG.node[85] typename "\"randomw.Node\""
par RGG.node[85] xCor 0.422118
par RGG.node[85] yCor 0.45543
par RGG.node[86] typename "\"randomw.Node\""
par RGG.node[86] xCor 0.764426
par RGG.node[86] yCor 0.964798
par RGG.node[87] typename "\"randomw.Node\""
par RGG.node[87] xCor 0.3669
par RGG.node[87] yCor 0.561277
par RGG.node[88] typename "\"randomw.Node\""
par RGG.node[88] xCor 0.92581
par RGG.node[88] yCor 0.615697
par RGG.node[89] typename "\"randomw.Node\""
par RGG.node[89] xCor 0.939247
par RGG.node[89] yCor 0.141738
par RGG.node[90] typename "\"randomw.Node\""
par RGG.node[90] xCor 0.0159427
par RGG.node[90] yCor 0.472633
par RGG.node[91] typename "\"randomw.Node\""
par RGG.node[91] xCor 0.930344
par RGG.node[91] yCor 0.107902
par RGG.node[92] typename "\"randomw.Node\""
par RGG.node[92] xCor 0.897895
par RGG.node[92] yCor 0.365216
par RGG.node[93] typename "\"randomw.Node\""
par RGG.node[93] xCor 0.209948
par RGG.node[93] yCor 0.696511
par RGG.node[94] typename "\"randomw.Node\""
par RGG.node[94] xCor 0.97783
par RGG.node[94] yCor 0.22119
par RGG.node[95] typename "\"randomw.Node\""
par RGG.node[95] xCor 0.299686
par RGG.node[95] yCor 0.580486
par RGG.node[96] typename "\"randomw.Node\""
par RGG.node[96] xCor 0.882927
par RGG.node[96] yCor 0.554881
par RGG.node[97] typename "\"randomw.Node\""
par RGG.node[97] xCor 0.163076
par RGG.node[97] yCor 0.676927
par RGG.node[98] typename "\"randomw.Node\""
par RGG.node[98] xCor 0.129367
par RGG.node[98] yCor 0.602235
par RGG.node[99] typename "\"randomw.Node\""
par RGG.node[99] xCor 0.365389
par RGG.node[99] yCor 0.116749
par RGG.host typename "\"randomw.Host\""
par RGG.host startNodeIndex 1
attr mutable ""
par RGG.host startNode 11
par RGG typename "\"randomw.simulations.RGG\""
par RGG numNodes 100
par RGG rc 0.25
par RGG enableDuplication true
attr mutable ""
par RGG noBacktracking false
attr mutable ""
par RGG numWalkers 1

