version 3
run General-416-20250904-14:13:24-15896
attr configname General
attr datetime 20250904-14:13:24
attr datetimef 20250904-141324
attr experiment General
attr inifile omnetpp.ini
attr iterationvars ""
attr iterationvarsd ""
attr iterationvarsf ""
attr measurement ""
attr network TaxiNetwork
attr processid 15896
attr repetition 416
attr replication #416
attr resultdir results
attr runnumber 416
attr seedset 416
config network TaxiNetwork
config seed-set 416
config num-rngs 1
config sim-time-limit 10s
config repeat 500
config *.numWalkers 1
config *.enableDuplication true
config *.rc 700
config **.node[0].xCor 2933
config **.node[0].yCor 2747
config **.node[1].xCor 2919
config **.node[1].yCor 2817
config **.node[2].xCor 2910
config **.node[2].yCor 2861
config **.node[3].xCor 2429
config **.node[3].yCor 2851
config **.node[4].xCor 2908
config **.node[4].yCor 2714
config **.node[5].xCor 2606
config **.node[5].yCor 2722
config **.node[6].xCor 2575
config **.node[6].yCor 2753
config **.node[7].xCor 2654
config **.node[7].yCor 2513
config **.node[8].xCor 2773
config **.node[8].yCor 2580
config **.node[9].xCor 3043
config **.node[9].yCor 2780
config **.node[10].xCor 3020
config **.node[10].yCor 2813
config **.node[11].xCor 2599
config **.node[11].yCor 2300
config **.node[12].xCor 2917
config **.node[12].yCor 2698
config **.node[13].xCor 2625
config **.node[13].yCor 2641
config **.node[14].xCor 2604
config **.node[14].yCor 2790
config **.node[15].xCor 2786
config **.node[15].yCor 3082
config **.node[16].xCor 2603
config **.node[16].yCor 2802
config **.node[17].xCor 2637
config **.node[17].yCor 2869
config **.node[18].xCor 2675
config **.node[18].yCor 2955
config **.node[19].xCor 2845
config **.node[19].yCor 2937
config **.node[20].xCor 2860
config **.node[20].yCor 2888
config **.node[21].xCor 2843
config **.node[21].yCor 4158
config **.node[22].xCor 2852
config **.node[22].yCor 4017
config **.node[23].xCor 2892
config **.node[23].yCor 4961
config **.node[24].xCor 2313
config **.node[24].yCor 3993
config **.node[25].xCor 2891
config **.node[25].yCor 4959
config **.node[26].xCor 2370
config **.node[26].yCor 4050
config **.node[27].xCor 2788
config **.node[27].yCor 3958
config **.node[28].xCor 2819
config **.node[28].yCor 4428
config **.node[29].xCor 2790
config **.node[29].yCor 3761
config **.node[30].xCor 2809
config **.node[30].yCor 2908
config **.node[31].xCor 2919
config **.node[31].yCor 3575
config **.node[32].xCor 2946
config **.node[32].yCor 3466
config **.node[33].xCor 2911
config **.node[33].yCor 3453
config **.node[34].xCor 2370
config **.node[34].yCor 3656
config **.node[35].xCor 2438
config **.node[35].yCor 3738
config **.node[36].xCor 2737
config **.node[36].yCor 3570
config **.node[37].xCor 2921
config **.node[37].yCor 3698
config **.node[38].xCor 2907
config **.node[38].yCor 5197
config **.node[39].xCor 2860
config **.node[39].yCor 3852
config **.node[40].xCor 2927
config **.node[40].yCor 3684
config **.node[41].xCor 3023
config **.node[41].yCor 5313
config **.node[42].xCor 3220
config **.node[42].yCor 5811
config **.node[43].xCor 3432
config **.node[43].yCor 5715
config **.node[44].xCor 2754
config **.node[44].yCor 2463
config **.node[45].xCor 2646
config **.node[45].yCor 2673
config **.node[46].xCor 3051
config **.node[46].yCor 2792
config **.node[47].xCor 1666
config **.node[47].yCor 3697
config **.node[48].xCor 1662
config **.node[48].yCor 3694
config **.node[49].xCor 1664
config **.node[49].yCor 3667
config **.node[50].xCor 1660
config **.node[50].yCor 3664
config **.node[51].xCor 1710
config **.node[51].yCor 3573
config **.node[52].xCor 2082
config **.node[52].yCor 2650
config **.node[53].xCor 2086
config **.node[53].yCor 2657
config **.node[54].xCor 2257
config **.node[54].yCor 3232
config **.node[55].xCor 2258
config **.node[55].yCor 3225
config **.node[56].xCor 1926
config **.node[56].yCor 2570
config **.node[57].xCor 1926
config **.node[57].yCor 2576
config **.node[58].xCor 2104
config **.node[58].yCor 1758
config **.node[59].xCor 1957
config **.node[59].yCor 1826
config **.node[60].xCor 3473
config **.node[60].yCor 1523
config **.node[61].xCor 3335
config **.node[61].yCor 1726
config **.node[62].xCor 3478
config **.node[62].yCor 1517
config **.node[63].xCor 3386
config **.node[63].yCor 2119
config **.node[64].xCor 3474
config **.node[64].yCor 1762
config **.node[65].xCor 3797
config **.node[65].yCor 2099
config **.node[66].xCor 3642
config **.node[66].yCor 2136
config **.node[67].xCor 3481
config **.node[67].yCor 2334
config **.node[68].xCor 3088
config **.node[68].yCor 1505
config **.node[69].xCor 3037
config **.node[69].yCor 1693
config **.node[70].xCor 3026
config **.node[70].yCor 1700
config **.node[71].xCor 3019
config **.node[71].yCor 669
config **.node[72].xCor 3513
config **.node[72].yCor 1358
config **.node[73].xCor 3545
config **.node[73].yCor 1230
config **.node[74].xCor 4228
config **.node[74].yCor 4220
config **.node[75].xCor 3379
config **.node[75].yCor 1207
config **.node[76].xCor 3596
config **.node[76].yCor 963
config **.node[77].xCor 3637
config **.node[77].yCor 1188
config **.node[78].xCor 3759
config **.node[78].yCor 1030
config **.node[79].xCor 2918
config **.node[79].yCor 1455
config **.node[80].xCor 2711
config **.node[80].yCor 1297
config **.node[81].xCor 439
config **.node[81].yCor 1623
config **.node[82].xCor 2857
config **.node[82].yCor 3581
config **.node[83].xCor 2858
config **.node[83].yCor 3584
config **.node[84].xCor 2999
config **.node[84].yCor 2636
config **.node[85].xCor 2905
config **.node[85].yCor 2778
config **.node[86].xCor 2653
config **.node[86].yCor 2845
config **.node[87].xCor 2864
config **.node[87].yCor 2836
config **.node[88].xCor 2426
config **.node[88].yCor 2892
config **.node[89].xCor 2964
config **.node[89].yCor 2804
config **.node[90].xCor 2586
config **.node[90].yCor 3135
config **.node[91].xCor 2864
config **.node[91].yCor 2980
config **.node[92].xCor 2527
config **.node[92].yCor 3219
config **.node[93].xCor 2863
config **.node[93].yCor 3142
config **.node[94].xCor 2485
config **.node[94].yCor 3269
config **.node[95].xCor 2653
config **.node[95].yCor 1065
config **.node[96].xCor 4062
config **.node[96].yCor 400
config **.node[97].xCor 5762
config **.node[97].yCor 3023
config **.node[98].xCor 1414
config **.node[98].yCor 3461
config **.node[99].xCor 2911
config **.node[99].yCor 1737
config **.node[100].xCor 2595
config **.node[100].yCor 2299
config **.node[101].xCor 2702
config **.node[101].yCor 3419
config **.node[102].xCor 2813
config **.node[102].yCor 3307
config **.node[103].xCor 2638
config **.node[103].yCor 2258
config **.node[104].xCor 2590
config **.node[104].yCor 3125
config **.node[105].xCor 1856
config **.node[105].yCor 2990
config **.node[106].xCor 1894
config **.node[106].yCor 2239
config **.node[107].xCor 383
config **.node[107].yCor 1251
config **.node[108].xCor 3447
config **.node[108].yCor 5489
config **.node[109].xCor 3450
config **.node[109].yCor 5697
config **.node[110].xCor 2719
config **.node[110].yCor 1920
config **.node[111].xCor 2085
config **.node[111].yCor 2389
config **.node[112].xCor 1910
config **.node[112].yCor 2548
config **.node[113].xCor 2069
config **.node[113].yCor 2050
config **.node[114].xCor 2184
config **.node[114].yCor 2209
config **.node[115].xCor 2278
config **.node[115].yCor 2390
config **.node[116].xCor 2249
config **.node[116].yCor 2299
config **.node[117].xCor 2356
config **.node[117].yCor 2303
config **.node[118].xCor 2192
config **.node[118].yCor 2475
config **.node[119].xCor 1720
config **.node[119].yCor 2911
config **.node[120].xCor 2400
config **.node[120].yCor 2887
config **.node[121].xCor 3344
config **.node[121].yCor 1890
config **.node[122].xCor 3136
config **.node[122].yCor 2418
config **.node[123].xCor 3243
config **.node[123].yCor 2525
config **.node[124].xCor 2396
config **.node[124].yCor 1267
config **.node[125].xCor 467
config **.node[125].yCor 1875
config **.node[126].xCor 3506
config **.node[126].yCor 1221
config **.node[127].xCor 1034
config **.node[127].yCor 1474
config **.node[128].xCor 2908
config **.node[128].yCor 1784
config **.node[129].xCor 2876
config **.node[129].yCor 1761
config **.node[130].xCor 2849
config **.node[130].yCor 1795
config **.node[131].xCor 3029
config **.node[131].yCor 1859
config **.node[132].xCor 2924
config **.node[132].yCor 1848
config **.node[133].xCor 3493
config **.node[133].yCor 1559
config **.node[134].xCor 2760
config **.node[134].yCor 1761
config **.node[135].xCor 1644
config **.node[135].yCor 3755
config **.node[136].xCor 1463
config **.node[136].yCor 3432
config **.node[137].xCor 2595
config **.node[137].yCor 2849
config **.node[138].xCor 2581
config **.node[138].yCor 2867
config **.node[139].xCor 2524
config **.node[139].yCor 2911
config **.node[140].xCor 2570
config **.node[140].yCor 2924
config **.node[141].xCor 2676
config **.node[141].yCor 2890
config **.node[142].xCor 2666
config **.node[142].yCor 2876
config **.node[143].xCor 3735
config **.node[143].yCor 1726
config **.node[144].xCor 1637
config **.node[144].yCor 3438

vector 0 TaxiNetwork.node[13] visitedPerTimestep ETV
vector 1 TaxiNetwork.node[6] visitedPerTimestep ETV
vector 2 TaxiNetwork.node[142] visitedPerTimestep ETV
vector 3 TaxiNetwork.node[19] visitedPerTimestep ETV
vector 4 TaxiNetwork.node[1] visitedPerTimestep ETV
vector 5 TaxiNetwork.node[10] visitedPerTimestep ETV
vector 6 TaxiNetwork.node[85] visitedPerTimestep ETV
vector 7 TaxiNetwork.node[101] visitedPerTimestep ETV
vector 8 TaxiNetwork.node[120] visitedPerTimestep ETV
vector 9 TaxiNetwork.node[84] visitedPerTimestep ETV
vector 10 TaxiNetwork.node[11] visitedPerTimestep ETV
vector 11 TaxiNetwork.node[20] visitedPerTimestep ETV
vector 12 TaxiNetwork.node[137] visitedPerTimestep ETV
vector 13 TaxiNetwork.node[88] visitedPerTimestep ETV
vector 14 TaxiNetwork.node[115] visitedPerTimestep ETV
vector 15 TaxiNetwork.node[118] visitedPerTimestep ETV
vector 16 TaxiNetwork.node[140] visitedPerTimestep ETV
vector 17 TaxiNetwork.node[17] visitedPerTimestep ETV
vector 18 TaxiNetwork.node[53] visitedPerTimestep ETV
vector 19 TaxiNetwork.node[14] visitedPerTimestep ETV
vector 20 TaxiNetwork.node[3] visitedPerTimestep ETV
vector 21 TaxiNetwork.node[16] visitedPerTimestep ETV
vector 22 TaxiNetwork.node[15] visitedPerTimestep ETV
vector 23 TaxiNetwork.node[30] visitedPerTimestep ETV
vector 24 TaxiNetwork.node[55] visitedPerTimestep ETV
vector 25 TaxiNetwork.node[116] visitedPerTimestep ETV
vector 26 TaxiNetwork.node[117] visitedPerTimestep ETV
vector 27 TaxiNetwork.node[32] visitedPerTimestep ETV
vector 28 TaxiNetwork.node[111] visitedPerTimestep ETV
vector 29 TaxiNetwork.node[7] visitedPerTimestep ETV
vector 30 TaxiNetwork.node[54] visitedPerTimestep ETV
vector 31 TaxiNetwork.node[141] visitedPerTimestep ETV
vector 32 TaxiNetwork.node[46] visitedPerTimestep ETV
vector 33 TaxiNetwork.node[123] visitedPerTimestep ETV
vector 34 TaxiNetwork.node[52] visitedPerTimestep ETV
vector 35 TaxiNetwork.node[56] visitedPerTimestep ETV
vector 36 TaxiNetwork.node[89] visitedPerTimestep ETV
vector 37 TaxiNetwork.node[86] visitedPerTimestep ETV
vector 38 TaxiNetwork.node[103] visitedPerTimestep ETV
vector 39 TaxiNetwork.node[18] visitedPerTimestep ETV
vector 40 TaxiNetwork.node[0] visitedPerTimestep ETV
vector 41 TaxiNetwork.node[44] visitedPerTimestep ETV
vector 42 TaxiNetwork.node[128] visitedPerTimestep ETV
vector 43 TaxiNetwork.node[80] visitedPerTimestep ETV
vector 44 TaxiNetwork.node[75] visitedPerTimestep ETV
vector 45 TaxiNetwork.node[60] visitedPerTimestep ETV
vector 46 TaxiNetwork.node[66] visitedPerTimestep ETV
vector 47 TaxiNetwork.node[5] visitedPerTimestep ETV
vector 48 TaxiNetwork.node[106] visitedPerTimestep ETV
vector 49 TaxiNetwork.node[33] visitedPerTimestep ETV
vector 50 TaxiNetwork.node[90] visitedPerTimestep ETV
vector 51 TaxiNetwork.node[138] visitedPerTimestep ETV
vector 52 TaxiNetwork.node[8] visitedPerTimestep ETV
vector 53 TaxiNetwork.node[45] visitedPerTimestep ETV
vector 54 TaxiNetwork.node[102] visitedPerTimestep ETV
vector 55 TaxiNetwork.node[2] visitedPerTimestep ETV
vector 56 TaxiNetwork.node[139] visitedPerTimestep ETV
vector 57 TaxiNetwork.node[12] visitedPerTimestep ETV
vector 58 TaxiNetwork.node[91] visitedPerTimestep ETV
vector 59 TaxiNetwork.node[100] visitedPerTimestep ETV
vector 60 TaxiNetwork.node[134] visitedPerTimestep ETV
vector 61 TaxiNetwork.node[112] visitedPerTimestep ETV
vector 62 TaxiNetwork.node[57] visitedPerTimestep ETV
vector 63 TaxiNetwork.node[114] visitedPerTimestep ETV
vector 64 TaxiNetwork.node[94] visitedPerTimestep ETV
vector 65 TaxiNetwork.node[40] visitedPerTimestep ETV
vector 66 TaxiNetwork.node[69] visitedPerTimestep ETV
vector 67 TaxiNetwork.node[65] visitedPerTimestep ETV
vector 68 TaxiNetwork.node[121] visitedPerTimestep ETV
vector 69 TaxiNetwork.node[129] visitedPerTimestep ETV
vector 70 TaxiNetwork.node[133] visitedPerTimestep ETV
vector 71 TaxiNetwork.node[130] visitedPerTimestep ETV
vector 72 TaxiNetwork.node[131] visitedPerTimestep ETV
vector 73 TaxiNetwork.node[68] visitedPerTimestep ETV
vector 74 TaxiNetwork.node[73] visitedPerTimestep ETV
vector 75 TaxiNetwork.node[77] visitedPerTimestep ETV
vector 76 TaxiNetwork.node[127] visitedPerTimestep ETV
vector 77 TaxiNetwork.node[61] visitedPerTimestep ETV
vector 78 TaxiNetwork.node[110] visitedPerTimestep ETV
vector 79 TaxiNetwork.node[124] visitedPerTimestep ETV
vector 80 TaxiNetwork.node[95] visitedPerTimestep ETV
vector 81 TaxiNetwork.node[126] visitedPerTimestep ETV
vector 82 TaxiNetwork.node[143] visitedPerTimestep ETV
vector 83 TaxiNetwork.node[62] visitedPerTimestep ETV
vector 84 TaxiNetwork.node[99] visitedPerTimestep ETV
vector 85 TaxiNetwork.node[79] visitedPerTimestep ETV
vector 86 TaxiNetwork.node[64] visitedPerTimestep ETV
vector 87 TaxiNetwork.node[63] visitedPerTimestep ETV
vector 88 TaxiNetwork.node[36] visitedPerTimestep ETV
vector 89 TaxiNetwork.node[9] visitedPerTimestep ETV
vector 90 TaxiNetwork.node[4] visitedPerTimestep ETV
vector 91 TaxiNetwork.node[105] visitedPerTimestep ETV
vector 92 TaxiNetwork.node[29] visitedPerTimestep ETV
vector 93 TaxiNetwork.node[31] visitedPerTimestep ETV
vector 94 TaxiNetwork.node[104] visitedPerTimestep ETV
vector 95 TaxiNetwork.node[83] visitedPerTimestep ETV
vector 96 TaxiNetwork.node[122] visitedPerTimestep ETV
vector 97 TaxiNetwork.node[93] visitedPerTimestep ETV
vector 98 TaxiNetwork.node[119] visitedPerTimestep ETV
vector 99 TaxiNetwork.node[37] visitedPerTimestep ETV
vector 100 TaxiNetwork.node[82] visitedPerTimestep ETV
vector 101 TaxiNetwork.node[87] visitedPerTimestep ETV
vector 102 TaxiNetwork.node[67] visitedPerTimestep ETV
vector 103 TaxiNetwork.node[92] visitedPerTimestep ETV
vector 104 TaxiNetwork.node[27] visitedPerTimestep ETV
vector 105 TaxiNetwork.node[70] visitedPerTimestep ETV
vector 106 TaxiNetwork.node[59] visitedPerTimestep ETV
vector 107 TaxiNetwork.node[35] visitedPerTimestep ETV
vector 108 TaxiNetwork.node[34] visitedPerTimestep ETV
vector 109 TaxiNetwork.node[26] visitedPerTimestep ETV
vector 110 TaxiNetwork.node[72] visitedPerTimestep ETV
vector 111 TaxiNetwork.node[132] visitedPerTimestep ETV
vector 112 TaxiNetwork.node[39] visitedPerTimestep ETV
vector 113 TaxiNetwork.node[21] visitedPerTimestep ETV
vector 114 TaxiNetwork.node[78] visitedPerTimestep ETV
vector 115 TaxiNetwork.node[113] visitedPerTimestep ETV
vector 116 TaxiNetwork.node[22] visitedPerTimestep ETV
vector 117 TaxiNetwork.node[28] visitedPerTimestep ETV
vector 118 TaxiNetwork.node[24] visitedPerTimestep ETV
vector 119 TaxiNetwork.node[76] visitedPerTimestep ETV
vector 120 TaxiNetwork.node[144] visitedPerTimestep ETV
vector 121 TaxiNetwork.node[135] visitedPerTimestep ETV
vector 122 TaxiNetwork.node[47] visitedPerTimestep ETV
vector 123 TaxiNetwork.node[48] visitedPerTimestep ETV
vector 124 TaxiNetwork.node[50] visitedPerTimestep ETV
vector 125 TaxiNetwork.node[98] visitedPerTimestep ETV
vector 126 TaxiNetwork.node[136] visitedPerTimestep ETV
vector 127 TaxiNetwork.node[51] visitedPerTimestep ETV
vector 128 TaxiNetwork.node[49] visitedPerTimestep ETV
vector 129 TaxiNetwork.node[71] visitedPerTimestep ETV
vector 130 TaxiNetwork.node[74] visitedPerTimestep ETV
vector 131 TaxiNetwork.node[58] visitedPerTimestep ETV
0	1	0	1
0	50	0	34
0	116	0	58
0	160	0	66
0	253	0	92
0	344	0	104
0	500	0	112
0	607	0	113
0	681	0	113
0	817	0	116
0	1014	0	119
0	1342	0	130
0	1606	0	131
0	1636	0	131
0	1646	0	131
0	1724	0	131
0	1782	0	131
0	2052	0	132
0	2068	0	132
0	2390	0	132
0	2788	0	132
0	3020	0	135
0	3240	0	136
0	3604	0	136
0	3840	0	136
0	3972	0	136
0	4268	0	136
0	4364	0	136
0	4704	0	136
0	5284	0	138
1	2	0	2
1	90	0	49
1	94	0	49
1	139	0	62
1	153	0	65
1	356	0	105
1	359	0	105
1	363	0	105
1	428	0	106
1	596	0	113
1	743	0	114
1	847	0	116
1	872	0	116
1	880	0	116
1	950	0	119
1	1462	0	131
1	1496	0	131
1	1632	0	131
1	1756	0	131
1	1762	0	131
1	2026	0	132
1	2146	0	132
1	2342	0	132
1	2522	0	132
1	2572	0	132
1	2590	0	132
1	2934	0	135
1	2972	0	135
1	3764	0	136
1	4244	0	136
1	4260	0	136
1	4304	0	136
1	4504	0	136
1	5164	0	138
1	5428	0	138
2	3	0	3
2	108	0	56
2	140	0	62
2	159	0	66
2	286	0	99
2	319	0	101
2	340	0	104
2	381	0	105
2	443	0	107
2	491	0	112
2	532	0	112
2	565	0	113
2	712	0	113
2	716	0	113
2	740	0	114
2	759	0	114
2	761	0	114
2	968	0	119
2	1166	0	120
2	1828	0	132
2	1992	0	132
2	2002	0	132
2	2128	0	132
2	2620	0	132
2	2780	0	132
2	3116	0	135
2	3124	0	135
2	3336	0	136
2	4100	0	136
2	4132	0	136
2	4488	0	136
2	4516	0	136
2	4596	0	136
2	4736	0	136
2	5200	0	138
3	4	0	4
3	55	0	36
3	97	0	49
3	119	0	58
3	364	0	105
3	652	0	113
3	915	0	119
3	961	0	119
3	1150	0	120
3	1366	0	130
3	1474	0	131
3	1526	0	131
3	1560	0	131
3	1784	0	131
3	2072	0	132
3	2106	0	132
3	2226	0	132
3	2462	0	132
3	2676	0	132
3	3068	0	135
3	3284	0	136
3	3496	0	136
3	4236	0	136
3	4476	0	136
3	4524	0	136
3	4556	0	136
3	4600	0	136
3	5004	0	138
4	5	0	5
4	33	0	27
4	63	0	41
4	83	0	49
4	239	0	91
4	241	0	91
4	301	0	100
4	310	0	101
4	320	0	101
4	389	0	105
4	485	0	112
4	616	0	113
4	728	0	114
4	834	0	116
4	958	0	119
4	996	0	119
4	1206	0	120
4	1232	0	120
4	1352	0	130
4	1594	0	131
4	1788	0	131
4	1852	0	132
4	2264	0	132
4	2592	0	132
4	2850	0	132
4	3216	0	136
4	3296	0	136
4	3880	0	136
4	4072	0	136
4	4184	0	136
4	4572	0	136
5	6	0	6
5	221	0	88
5	251	0	92
5	371	0	105
5	484	0	112
5	509	0	112
5	555	0	113
5	593	0	113
5	597	0	113
5	599	0	113
5	630	0	113
5	675	0	113
5	936	0	119
5	1670	0	131
5	1934	0	132
5	2014	0	132
5	2256	0	132
5	2330	0	132
5	2640	0	132
5	2966	0	135
5	3064	0	135
5	3160	0	135
5	4632	0	136
5	4980	0	138
5	5168	0	138
5	5544	0	141
6	7	0	7
6	85	0	49
6	93	0	49
6	117	0	58
6	551	0	113
6	570	0	113
6	600	0	113
6	671	0	113
6	972	0	119
6	1004	0	119
6	1140	0	120
6	1146	0	120
6	1492	0	131
6	1558	0	131
6	1734	0	131
6	1914	0	132
6	1930	0	132
6	2234	0	132
6	2282	0	132
6	2532	0	132
6	2990	0	135
6	3168	0	135
6	3760	0	136
6	3904	0	136
6	4084	0	136
6	4988	0	138
6	5252	0	138
6	5316	0	138
6	5388	0	138
6	5412	0	138
7	8	0	8
7	45	0	30
7	311	0	101
7	531	0	112
7	544	0	113
7	547	0	113
7	755	0	114
7	871	0	116
7	930	0	119
7	932	0	119
7	940	0	119
7	1010	0	119
7	1426	0	131
7	1460	0	131
7	1464	0	131
7	2028	0	132
7	2212	0	132
7	2224	0	132
7	2232	0	132
7	2588	0	132
7	2946	0	135
7	4484	0	136
7	4756	0	136
7	5028	0	138
7	5100	0	138
7	5192	0	138
8	9	0	9
8	15	0	14
8	28	0	25
8	84	0	49
8	87	0	49
8	234	0	90
8	247	0	92
8	312	0	101
8	346	0	104
8	367	0	105
8	488	0	112
8	633	0	113
8	698	0	113
8	736	0	114
8	843	0	116
8	1034	0	119
8	1198	0	120
8	1320	0	130
8	1330	0	130
8	1346	0	130
8	1520	0	131
8	1674	0	131
8	1840	0	132
8	1920	0	132
8	2060	0	132
8	2150	0	132
8	2568	0	132
8	2958	0	135
8	3108	0	135
8	3328	0	136
8	3400	0	136
8	3488	0	136
8	3564	0	136
8	3656	0	136
8	3752	0	136
8	4832	0	136
8	5280	0	138
8	5360	0	138
9	10	0	10
9	82	0	49
9	86	0	49
9	141	0	62
9	327	0	103
9	422	0	106
9	635	0	113
9	647	0	113
9	819	0	116
9	833	0	116
9	848	0	116
9	856	0	116
9	948	0	119
9	992	0	119
9	1936	0	132
9	1976	0	132
9	2250	0	132
9	2412	0	132
9	2792	0	132
9	3000	0	135
9	3552	0	136
9	3920	0	136
9	4660	0	136
9	4940	0	137
9	5372	0	138
9	5496	0	138
9	5508	0	138
9	5524	0	138
10	11	0	11
10	32	0	27
10	60	0	40
10	68	0	42
10	328	0	103
10	397	0	105
10	460	0	110
10	504	0	112
10	594	0	113
10	639	0	113
10	942	0	119
10	964	0	119
10	982	0	119
10	994	0	119
10	1504	0	131
10	1604	0	131
10	1626	0	131
10	1776	0	131
10	1780	0	131
10	1956	0	132
10	2022	0	132
10	2170	0	132
10	2288	0	132
10	2564	0	132
10	2622	0	132
10	2852	0	133
10	2950	0	135
10	3032	0	135
10	3484	0	136
10	3864	0	136
10	5144	0	138
10	5500	0	138
11	12	0	12
11	36	0	28
11	104	0	54
11	238	0	91
11	250	0	92
11	266	0	97
11	355	0	105
11	379	0	105
11	510	0	112
11	580	0	113
11	677	0	113
11	747	0	114
11	809	0	116
11	837	0	116
11	870	0	116
11	925	0	119
11	1162	0	120
11	1332	0	130
11	1522	0	131
11	1656	0	131
11	1686	0	131
11	1722	0	131
11	1770	0	131
11	1796	0	131
11	1858	0	132
11	2156	0	132
11	2284	0	132
11	2360	0	132
11	2538	0	132
11	2796	0	132
11	3440	0	136
11	3584	0	136
11	3808	0	136
11	3820	0	136
11	4352	0	136
11	5512	0	138
12	13	0	13
12	230	0	90
12	268	0	98
12	489	0	112
12	523	0	112
12	608	0	113
12	751	0	114
12	953	0	119
12	1006	0	119
12	1156	0	120
12	1210	0	120
12	1360	0	130
12	1456	0	131
12	1924	0	132
12	1938	0	132
12	1958	0	132
12	2154	0	132
12	2382	0	132
12	2514	0	132
12	3260	0	136
12	3468	0	136
12	3492	0	136
12	4064	0	136
12	4240	0	136
12	4932	0	137
12	4968	0	137
12	5048	0	138
12	5196	0	138
12	5292	0	138
12	5424	0	138
13	14	0	14
13	42	0	30
13	88	0	49
13	329	0	103
13	365	0	105
13	376	0	105
13	427	0	106
13	662	0	113
13	672	0	113
13	873	0	116
13	876	0	116
13	891	0	116
13	926	0	119
13	969	0	119
13	1138	0	120
13	1662	0	131
13	1970	0	132
13	2846	0	132
13	3132	0	135
13	3180	0	135
13	3204	0	136
13	3280	0	136
13	3408	0	136
13	3596	0	136
13	3856	0	136
13	4060	0	136
13	4120	0	136
13	4332	0	136
13	4512	0	136
13	4768	0	136
13	5120	0	138
13	5180	0	138
13	5300	0	138
14	16	0	15
14	40	0	29
14	80	0	49
14	145	0	62
14	283	0	99
14	426	0	106
14	434	0	106
14	437	0	106
14	568	0	113
14	622	0	113
14	757	0	114
14	813	0	116
14	815	0	116
14	967	0	119
14	1228	0	120
14	1518	0	131
14	1620	0	131
14	2024	0	132
14	2124	0	132
14	2176	0	132
14	2320	0	132
14	2380	0	132
14	2404	0	132
14	2444	0	132
14	2542	0	132
14	2808	0	132
14	2986	0	135
14	3028	0	135
14	3176	0	135
14	3416	0	136
14	3636	0	136
14	4312	0	136
14	4684	0	136
14	5220	0	138
15	17	0	16
15	67	0	42
15	76	0	48
15	146	0	62
15	285	0	99
15	335	0	103
15	361	0	105
15	429	0	106
15	654	0	113
15	807	0	116
15	1158	0	120
15	1372	0	130
15	1698	0	131
15	1994	0	132
15	2376	0	132
15	2556	0	132
15	2562	0	132
15	3560	0	136
15	3844	0	136
15	5472	0	138
16	18	0	17
16	23	0	21
16	290	0	100
16	309	0	101
16	385	0	105
16	481	0	112
16	515	0	112
16	543	0	113
16	588	0	113
16	660	0	113
16	732	0	114
16	838	0	116
16	850	0	116
16	937	0	119
16	995	0	119
16	1350	0	130
16	1354	0	130
16	1370	0	130
16	1472	0	131
16	1600	0	131
16	1794	0	131
16	1832	0	132
16	1844	0	132
16	1980	0	132
16	2062	0	132
16	2122	0	132
16	2340	0	132
16	2364	0	132
16	2594	0	132
16	2942	0	135
16	3868	0	136
16	3896	0	136
16	3908	0	136
16	3960	0	136
16	4164	0	136
16	4628	0	136
16	5012	0	138
16	5204	0	138
16	5288	0	138
16	5540	0	140
17	19	0	18
17	262	0	96
17	315	0	101
17	503	0	112
17	527	0	112
17	623	0	113
17	682	0	113
17	685	0	113
17	808	0	116
17	898	0	116
17	1016	0	119
17	1230	0	120
17	1596	0	131
17	1676	0	131
17	1746	0	131
17	1774	0	131
17	1860	0	132
17	1968	0	132
17	2144	0	132
17	2280	0	132
17	2540	0	132
17	2720	0	132
17	2848	0	132
17	3744	0	136
17	4192	0	136
17	4224	0	136
17	4620	0	136
17	4976	0	137
17	5020	0	138
18	20	0	19
18	79	0	49
18	112	0	57
18	563	0	113
18	566	0	113
18	663	0	113
18	913	0	119
18	952	0	119
18	965	0	119
18	1190	0	120
18	1194	0	120
18	1318	0	130
18	1586	0	131
18	2018	0	132
18	2386	0	132
18	2602	0	132
18	2770	0	132
18	3264	0	136
18	3964	0	136
18	4128	0	136
18	4496	0	136
18	4536	0	136
18	4616	0	136
18	5068	0	138
18	5260	0	138
19	21	0	20
19	142	0	62
19	155	0	65
19	161	0	66
19	227	0	90
19	243	0	91
19	271	0	98
19	275	0	98
19	293	0	100
19	511	0	112
19	521	0	112
19	560	0	113
19	628	0	113
19	676	0	113
19	854	0	116
19	912	0	119
19	1488	0	131
19	1516	0	131
19	1948	0	132
19	2166	0	132
19	2238	0	132
19	2600	0	132
19	2618	0	132
19	2968	0	135
19	3956	0	136
19	4112	0	136
19	4228	0	136
19	4348	0	136
19	4760	0	136
19	4952	0	137
20	22	0	21
20	37	0	28
20	54	0	36
20	151	0	64
20	282	0	99
20	487	0	112
20	556	0	113
20	577	0	113
20	678	0	113
20	702	0	113
20	748	0	114
20	754	0	114
20	758	0	114
20	860	0	116
20	1160	0	120
20	1324	0	130
20	1362	0	130
20	1644	0	131
20	2016	0	132
20	2034	0	132
20	2132	0	132
20	2410	0	132
20	2936	0	135
20	2982	0	135
20	2994	0	135
20	3208	0	136
20	3368	0	136
20	3380	0	136
20	3680	0	136
20	4480	0	136
20	4764	0	136
20	4956	0	137
20	4996	0	138
20	5208	0	138
21	24	0	22
21	64	0	41
21	91	0	49
21	95	0	49
21	109	0	56
21	131	0	61
21	144	0	62
21	232	0	90
21	277	0	98
21	477	0	112
21	552	0	113
21	562	0	113
21	610	0	113
21	658	0	113
21	669	0	113
21	750	0	114
21	805	0	116
21	865	0	116
21	931	0	119
21	966	0	119
21	1030	0	119
21	1512	0	131
21	1652	0	131
21	1664	0	131
21	1760	0	131
21	1862	0	132
21	2228	0	132
21	2450	0	132
21	2552	0	132
21	2598	0	132
21	2794	0	132
21	2988	0	135
21	3288	0	136
21	3932	0	136
21	4044	0	136
21	4140	0	136
21	4160	0	136
21	4532	0	136
21	5024	0	138
21	5248	0	138
21	5492	0	138
21	5504	0	138
22	25	0	23
22	35	0	28
22	105	0	54
22	156	0	65
22	158	0	66
22	236	0	91
22	270	0	98
22	287	0	99
22	305	0	101
22	541	0	113
22	549	0	113
22	626	0	113
22	714	0	113
22	804	0	116
22	832	0	116
22	849	0	116
22	861	0	116
22	896	0	116
22	934	0	119
22	938	0	119
22	1018	0	119
22	1470	0	131
22	1634	0	131
22	1768	0	131
22	1854	0	132
22	2054	0	132
22	2136	0	132
22	2236	0	132
22	2408	0	132
22	2536	0	132
22	3004	0	135
22	3464	0	136
22	3688	0	136
22	3768	0	136
22	4196	0	136
22	4456	0	136
22	4564	0	136
22	5116	0	138
22	5564	0	144
23	26	0	24
23	43	0	30
23	62	0	41
23	292	0	100
23	307	0	101
23	330	0	103
23	345	0	104
23	502	0	112
23	573	0	113
23	584	0	113
23	617	0	113
23	741	0	114
23	878	0	116
23	899	0	116
23	929	0	119
23	1002	0	119
23	1136	0	120
23	1732	0	131
23	2260	0	132
23	2366	0	132
23	2464	0	132
23	2530	0	132
23	2606	0	132
23	2656	0	132
23	3792	0	136
23	3876	0	136
23	4032	0	136
23	4844	0	137
23	5172	0	138
23	5560	0	144
24	27	0	25
24	44	0	30
24	261	0	96
24	279	0	98
24	313	0	101
24	333	0	103
24	537	0	113
24	540	0	113
24	875	0	116
24	892	0	116
24	914	0	119
24	1168	0	120
24	1176	0	120
24	1328	0	130
24	1576	0	131
24	2006	0	132
24	2114	0	132
24	2362	0	132
24	2586	0	132
24	2768	0	132
24	2786	0	132
24	2844	0	132
24	2962	0	135
24	3332	0	136
24	4220	0	136
24	4276	0	136
24	4828	0	136
24	4888	0	137
24	5128	0	138
24	5568	0	144
25	29	0	26
25	31	0	27
25	66	0	42
25	135	0	61
25	143	0	62
25	149	0	63
25	154	0	65
25	436	0	106
25	441	0	107
25	524	0	112
25	1238	0	120
25	1344	0	130
25	1510	0	131
25	1692	0	131
25	1964	0	132
25	2066	0	132
25	2142	0	132
25	2396	0	132
25	2402	0	132
25	2806	0	132
25	2980	0	135
25	3640	0	136
25	3652	0	136
25	3748	0	136
25	5456	0	138
26	30	0	27
26	39	0	29
26	77	0	48
26	128	0	61
26	148	0	63
26	442	0	107
26	478	0	112
26	512	0	112
26	859	0	116
26	864	0	116
26	956	0	119
26	986	0	119
26	1186	0	120
26	1226	0	120
26	2126	0	132
26	2392	0	132
26	2596	0	132
26	3648	0	136
26	3672	0	136
26	4056	0	136
27	34	0	28
27	289	0	100
27	331	0	103
27	349	0	104
27	353	0	105
27	492	0	112
27	542	0	113
27	554	0	113
27	733	0	114
27	885	0	116
27	924	0	119
27	960	0	119
27	973	0	119
27	980	0	119
27	1164	0	120
27	1436	0	131
27	1450	0	131
27	1478	0	131
27	1730	0	131
27	1798	0	131
27	1846	0	132
27	2188	0	132
27	2198	0	132
27	2208	0	132
27	2358	0	132
27	2672	0	132
27	2698	0	132
27	2954	0	135
27	3044	0	135
27	3252	0	136
27	3988	0	136
27	4012	0	136
27	4088	0	136
27	4568	0	136
27	4624	0	136
27	4740	0	136
27	4900	0	137
27	5060	0	138
27	5136	0	138
28	38	0	29
28	276	0	98
28	336	0	103
28	366	0	105
28	375	0	105
28	440	0	107
28	518	0	112
28	520	0	112
28	693	0	113
28	696	0	113
28	816	0	116
28	1188	0	120
28	1192	0	120
28	1224	0	120
28	1382	0	130
28	2148	0	132
28	2378	0	132
28	2388	0	132
28	2682	0	132
28	2804	0	132
28	3536	0	136
28	3600	0	136
28	4040	0	136
28	4124	0	136
28	5348	0	138
28	5356	0	138
28	5436	0	138
28	5448	0	138
29	41	0	30
29	138	0	62
29	316	0	101
29	337	0	103
29	383	0	105
29	517	0	112
29	603	0	113
29	620	0	113
29	649	0	113
29	667	0	113
29	699	0	113
29	713	0	113
29	844	0	116
29	858	0	116
29	1152	0	120
29	1640	0	131
29	1696	0	131
29	1750	0	131
29	1982	0	132
29	2102	0	132
29	2138	0	132
29	2520	0	132
29	2978	0	135
29	3172	0	135
29	3388	0	136
29	3412	0	136
29	3476	0	136
29	3832	0	136
29	4028	0	136
29	4052	0	136
29	4156	0	136
29	4540	0	136
29	4560	0	136
29	4672	0	136
29	4992	0	138
29	5040	0	138
29	5272	0	138
30	46	0	31
30	51	0	34
30	314	0	101
30	431	0	106
30	446	0	107
30	501	0	112
30	590	0	113
30	605	0	113
30	656	0	113
30	687	0	113
30	749	0	114
30	868	0	116
30	1200	0	120
30	1440	0	131
30	1566	0	131
30	1580	0	131
30	1678	0	131
30	1744	0	131
30	1754	0	131
30	1856	0	132
30	2040	0	132
30	2120	0	132
30	2574	0	132
30	2692	0	132
30	2782	0	132
30	3120	0	135
30	3436	0	136
30	3852	0	136
30	4908	0	137
31	47	0	32
31	224	0	89
31	231	0	90
31	372	0	105
31	424	0	106
31	430	0	106
31	559	0	113
31	595	0	113
31	686	0	113
31	735	0	114
31	803	0	116
31	812	0	116
31	835	0	116
31	1134	0	120
31	1202	0	120
31	1484	0	131
31	1736	0	131
31	1752	0	131
31	1816	0	132
31	1928	0	132
31	1952	0	132
31	2030	0	132
31	2286	0	132
31	2406	0	132
31	2518	0	132
31	2800	0	132
31	2940	0	135
31	3052	0	135
31	3316	0	136
31	3556	0	136
31	3944	0	136
31	4452	0	136
31	4500	0	136
32	48	0	33
32	89	0	49
32	302	0	100
32	341	0	104
32	423	0	106
32	553	0	113
32	571	0	113
32	618	0	113
32	730	0	114
32	845	0	116
32	947	0	119
32	949	0	119
32	970	0	119
32	1038	0	119
32	1214	0	120
32	1340	0	130
32	1728	0	131
32	1812	0	132
32	2416	0	132
32	2652	0	132
32	2924	0	135
32	3016	0	135
32	3156	0	135
32	3780	0	136
32	3900	0	136
32	3916	0	136
32	4464	0	136
32	4604	0	136
32	4664	0	136
32	5156	0	138
33	49	0	34
33	74	0	47
33	125	0	59
33	217	0	87
33	219	0	88
33	321	0	101
33	325	0	102
33	369	0	105
33	394	0	105
33	526	0	112
33	670	0	113
33	718	0	113
33	773	0	114
33	1688	0	131
33	1720	0	131
33	1772	0	131
33	2104	0	132
33	2638	0	132
33	3228	0	136
33	3608	0	136
33	4712	0	136
33	4724	0	136
33	5148	0	138
33	5396	0	138
33	5404	0	138
34	52	0	35
34	137	0	62
34	244	0	91
34	373	0	105
34	567	0	113
34	665	0	113
34	695	0	113
34	811	0	116
34	1222	0	120
34	1486	0	131
34	1618	0	131
34	1966	0	132
34	2174	0	132
34	2524	0	132
34	3372	0	136
34	3524	0	136
34	3836	0	136
34	3976	0	136
34	4360	0	136
34	4700	0	136
35	53	0	36
35	129	0	61
35	281	0	99
35	360	0	105
35	435	0	106
35	1236	0	120
35	1240	0	121
35	2434	0	132
35	2440	0	132
35	2446	0	132
35	2774	0	132
35	3404	0	136
35	4328	0	136
35	5340	0	138
36	56	0	37
36	96	0	49
36	162	0	66
36	237	0	91
36	295	0	100
36	342	0	104
36	499	0	112
36	546	0	113
36	611	0	113
36	629	0	113
36	638	0	113
36	651	0	113
36	846	0	116
36	852	0	116
36	1008	0	119
36	1012	0	119
36	1144	0	120
36	1204	0	120
36	1364	0	130
36	1490	0	131
36	1500	0	131
36	1986	0	132
36	2100	0	132
36	2254	0	132
36	2368	0	132
36	2516	0	132
36	3232	0	136
36	3548	0	136
36	3700	0	136
36	3936	0	136
36	4252	0	136
36	5392	0	138
36	5592	0	144
37	57	0	38
37	124	0	59
37	274	0	98
37	334	0	103
37	425	0	106
37	445	0	107
37	490	0	112
37	558	0	113
37	668	0	113
37	745	0	114
37	867	0	116
37	981	0	119
37	1148	0	120
37	1454	0	131
37	1624	0	131
37	1990	0	132
37	2012	0	132
37	2064	0	132
37	2140	0	132
37	2168	0	132
37	2252	0	132
37	2526	0	132
37	2790	0	132
37	2998	0	135
37	3008	0	135
37	3036	0	135
37	3184	0	135
37	3520	0	136
37	3528	0	136
37	3712	0	136
37	4692	0	136
37	4904	0	137
37	4948	0	137
37	5044	0	138
37	5276	0	138
37	5304	0	138
38	58	0	39
38	81	0	49
38	113	0	57
38	216	0	87
38	233	0	90
38	323	0	101
38	476	0	112
38	479	0	112
38	525	0	112
38	737	0	114
38	762	0	114
38	810	0	116
38	877	0	116
38	927	0	119
38	985	0	119
38	1040	0	119
38	1218	0	120
38	1384	0	130
38	1590	0	131
38	1622	0	131
38	1864	0	132
38	2290	0	132
38	2316	0	132
38	2546	0	132
38	2654	0	132
38	2718	0	132
38	2922	0	135
38	2938	0	135
38	3224	0	136
38	3324	0	136
38	3544	0	136
38	3580	0	136
38	3812	0	136
38	4116	0	136
38	4256	0	136
38	4368	0	136
38	4636	0	136
38	5264	0	138
39	59	0	40
39	122	0	58
39	228	0	90
39	260	0	96
39	297	0	100
39	299	0	100
39	388	0	105
39	498	0	112
39	539	0	113
39	591	0	113
39	862	0	116
39	1334	0	130
39	1356	0	130
39	1476	0	131
39	1660	0	131
39	1740	0	131
39	1984	0	132
39	2020	0	132
39	2178	0	132
39	2262	0	132
39	2266	0	132
39	2332	0	132
39	2610	0	132
39	3024	0	135
39	3592	0	136
39	3696	0	136
39	3824	0	136
39	3928	0	136
39	4096	0	136
39	4232	0	136
39	4356	0	136
39	4696	0	136
39	4944	0	137
39	4984	0	138
39	5140	0	138
39	5308	0	138
39	5520	0	138
39	5556	0	143
40	61	0	41
40	118	0	58
40	133	0	61
40	347	0	104
40	391	0	105
40	507	0	112
40	578	0	113
40	612	0	113
40	719	0	113
40	857	0	116
40	918	0	119
40	1502	0	131
40	1610	0	131
40	1810	0	132
40	1932	0	132
40	1946	0	132
40	1988	0	132
40	2058	0	132
40	2426	0	132
40	2460	0	132
40	2678	0	132
40	3320	0	136
40	4048	0	136
40	4344	0	136
40	4608	0	136
40	4840	0	137
41	65	0	42
41	322	0	101
41	483	0	112
41	636	0	113
41	650	0	113
41	729	0	114
41	746	0	114
41	820	0	116
41	946	0	119
41	955	0	119
41	1220	0	120
41	1598	0	131
41	1654	0	131
41	1684	0	131
41	1940	0	132
41	1954	0	132
41	1960	0	132
41	2134	0	132
41	2322	0	132
41	2424	0	132
41	2466	0	132
41	2512	0	132
41	2544	0	132
41	2554	0	132
41	2976	0	135
41	3516	0	136
41	3816	0	136
41	4080	0	136
41	4248	0	136
41	4588	0	136
41	4732	0	136
41	5008	0	138
41	5228	0	138
41	5236	0	138
41	5312	0	138
41	5432	0	138
41	5452	0	138
41	5480	0	138
42	69	0	43
42	164	0	66
42	176	0	73
42	196	0	81
42	215	0	87
42	400	0	105
42	640	0	113
42	642	0	113
42	943	0	119
42	1102	0	120
42	1118	0	120
42	1126	0	120
42	1866	0	132
42	2294	0	132
42	2510	0	132
42	3624	0	136
42	4376	0	136
42	4444	0	136
42	5232	0	138
43	70	0	44
43	172	0	72
43	195	0	81
43	944	0	119
43	1128	0	120
43	1410	0	130
43	2856	0	135
43	2884	0	135
44	71	0	45
44	179	0	73
44	204	0	85
44	408	0	106
44	1056	0	119
44	1076	0	120
44	1714	0	131
44	1902	0	132
44	2298	0	132
44	2502	0	132
44	2904	0	135
45	72	0	46
45	166	0	67
45	183	0	76
45	188	0	78
45	407	0	106
45	467	0	111
45	469	0	111
45	764	0	114
45	769	0	114
45	791	0	115
45	1064	0	119
45	1078	0	120
45	1092	0	120
45	1104	0	120
45	1116	0	120
45	1400	0	130
45	1416	0	131
45	1884	0	132
45	2914	0	135
46	73	0	47
46	200	0	83
46	412	0	106
46	419	0	106
46	468	0	111
46	771	0	114
46	774	0	114
46	1090	0	120
46	1890	0	132
46	4720	0	136
47	75	0	48
47	92	0	49
47	120	0	58
47	130	0	61
47	248	0	92
47	294	0	100
47	308	0	101
47	370	0	105
47	653	0	113
47	655	0	113
47	688	0	113
47	705	0	113
47	727	0	114
47	806	0	116
47	879	0	116
47	917	0	119
47	971	0	119
47	1036	0	119
47	1568	0	131
47	1616	0	131
47	1764	0	131
47	1978	0	132
47	2604	0	132
47	2964	0	135
47	3164	0	135
47	4548	0	136
47	4680	0	136
47	5484	0	138
48	78	0	49
48	284	0	99
48	438	0	106
48	1380	0	130
48	2438	0	132
48	2558	0	132
48	2810	0	132
48	3428	0	136
48	4324	0	136
48	5468	0	138
49	98	0	50
49	752	0	114
49	829	0	116
49	831	0	116
49	869	0	116
49	935	0	119
49	997	0	119
49	1468	0	131
49	1554	0	131
49	1564	0	131
49	1578	0	131
49	2160	0	132
49	2210	0	132
49	2346	0	132
49	2582	0	132
49	2658	0	132
49	3504	0	136
49	3740	0	136
49	3772	0	136
49	3796	0	136
49	3884	0	136
49	3912	0	136
49	4288	0	136
49	4576	0	136
49	4800	0	136
49	4824	0	136
49	5320	0	138
49	5552	0	143
50	99	0	51
50	222	0	88
50	242	0	91
50	303	0	100
50	392	0	105
50	444	0	107
50	613	0	113
50	679	0	113
50	701	0	113
50	821	0	116
50	1026	0	119
50	2008	0	132
50	2324	0	132
50	2616	0	132
50	2642	0	132
50	2674	0	132
50	2694	0	132
50	2706	0	132
50	2992	0	135
50	3056	0	135
50	3188	0	135
50	3268	0	136
50	3344	0	136
50	3360	0	136
50	3708	0	136
50	3776	0	136
50	3980	0	136
50	4272	0	136
50	4472	0	136
50	4592	0	136
50	5092	0	138
50	5240	0	138
50	5368	0	138
50	5548	0	142
51	100	0	52
51	102	0	53
51	269	0	98
51	378	0	105
51	480	0	112
51	516	0	112
51	569	0	113
51	598	0	113
51	625	0	113
51	648	0	113
51	684	0	113
51	703	0	113
51	756	0	114
51	1178	0	120
51	1336	0	130
51	1424	0	131
51	1584	0	131
51	1588	0	131
51	1682	0	131
51	1972	0	132
51	2164	0	132
51	2566	0	132
51	2680	0	132
51	2798	0	132
51	2802	0	132
51	2944	0	135
51	2948	0	135
51	2960	0	135
51	2970	0	135
51	2974	0	135
51	3012	0	135
51	3128	0	135
51	3276	0	136
51	3292	0	136
51	3668	0	136
51	4024	0	136
52	101	0	53
52	134	0	61
52	296	0	100
52	377	0	105
52	585	0	113
52	592	0	113
52	708	0	113
52	739	0	114
52	853	0	116
52	991	0	119
52	1648	0	131
52	1786	0	131
52	1820	0	132
52	1834	0	132
52	2258	0	132
52	2716	0	132
52	2778	0	132
52	3340	0	136
52	3860	0	136
52	4148	0	136
52	4468	0	136
52	4544	0	136
52	4772	0	136
53	103	0	54
53	220	0	88
53	318	0	101
53	362	0	105
53	459	0	110
53	557	0	113
53	564	0	113
53	575	0	113
53	589	0	113
53	664	0	113
53	963	0	119
53	1592	0	131
53	1614	0	131
53	2130	0	132
53	2172	0	132
53	2648	0	132
53	3272	0	136
53	3568	0	136
53	4036	0	136
53	4688	0	136
53	5160	0	138
53	5216	0	138
53	5256	0	138
54	106	0	55
54	132	0	61
54	240	0	91
54	300	0	100
54	380	0	105
54	494	0	112
54	657	0	113
54	711	0	113
54	744	0	114
54	881	0	116
54	919	0	119
54	1442	0	131
54	1482	0	131
54	1850	0	132
54	2044	0	132
54	2088	0	132
54	2110	0	132
54	2370	0	132
54	2428	0	132
54	2956	0	135
54	3048	0	135
54	3136	0	135
54	3200	0	135
54	3212	0	136
54	3244	0	136
54	3300	0	136
54	3716	0	136
54	4928	0	137
55	107	0	56
55	110	0	56
55	395	0	105
55	572	0	113
55	941	0	119
55	1032	0	119
55	1608	0	131
55	1642	0	131
55	1790	0	131
55	1830	0	132
55	1836	0	132
55	2338	0	132
55	2456	0	132
55	2696	0	132
55	2928	0	135
55	2952	0	135
55	3060	0	135
55	3364	0	136
55	4104	0	136
55	4340	0	136
55	4728	0	136
55	4788	0	136
55	5016	0	138
55	5056	0	138
55	5600	0	145
56	111	0	57
56	115	0	58
56	121	0	58
56	252	0	92
56	332	0	103
56	545	0	113
56	586	0	113
56	601	0	113
56	632	0	113
56	634	0	113
56	674	0	113
56	707	0	113
56	715	0	113
56	731	0	114
56	753	0	114
56	818	0	116
56	882	0	116
56	1234	0	120
56	1322	0	130
56	1556	0	131
56	1612	0	131
56	1666	0	131
56	1738	0	131
56	1998	0	132
56	2430	0	132
56	2448	0	132
56	2458	0	132
56	2534	0	132
56	3376	0	136
56	3660	0	136
56	3848	0	136
56	4020	0	136
56	4136	0	136
56	4180	0	136
56	4612	0	136
56	4776	0	136
56	5064	0	138
56	5224	0	138
56	5376	0	138
56	5416	0	138
57	114	0	58
57	226	0	90
57	264	0	97
57	393	0	105
57	396	0	105
57	508	0	112
57	659	0	113
57	842	0	116
57	957	0	119
57	1028	0	119
57	1216	0	120
57	1338	0	130
57	1422	0	131
57	1766	0	131
57	1944	0	132
57	2000	0	132
57	2010	0	132
57	2326	0	132
57	2528	0	132
57	2550	0	132
57	3472	0	136
57	3756	0	136
57	3828	0	136
57	4168	0	136
57	4264	0	136
57	4972	0	137
57	5244	0	138
57	5408	0	138
58	123	0	59
58	229	0	90
58	506	0	112
58	528	0	112
58	606	0	113
58	673	0	113
58	680	0	113
58	742	0	114
58	840	0	116
58	884	0	116
58	939	0	119
58	1142	0	120
58	1814	0	132
58	1824	0	132
58	1848	0	132
58	1922	0	132
58	2230	0	132
58	2714	0	132
58	2930	0	135
58	3236	0	136
58	3500	0	136
58	3664	0	136
58	3784	0	136
58	4092	0	136
58	5212	0	138
58	5400	0	138
59	126	0	60
59	163	0	66
59	486	0	112
59	514	0	112
59	561	0	113
59	579	0	113
59	602	0	113
59	619	0	113
59	802	0	116
59	951	0	119
59	1182	0	120
59	1420	0	131
59	1630	0	131
59	1638	0	131
59	1690	0	131
59	1838	0	132
59	1962	0	132
59	2374	0	132
59	2454	0	132
59	2476	0	132
59	2548	0	132
59	2874	0	135
59	3532	0	136
59	3628	0	136
59	3968	0	136
59	4144	0	136
59	4372	0	136
59	4448	0	136
59	4936	0	137
59	5000	0	138
59	5152	0	138
59	5296	0	138
59	5488	0	138
60	127	0	61
60	173	0	72
60	177	0	73
60	186	0	77
60	474	0	111
60	987	0	119
60	1506	0	131
60	1778	0	131
60	1870	0	132
60	1876	0	132
60	2508	0	132
60	2630	0	132
60	2892	0	135
60	4404	0	136
61	136	0	62
61	246	0	92
61	690	0	113
61	1374	0	130
61	2036	0	132
61	2442	0	132
61	2570	0	132
61	2688	0	132
61	5352	0	138
62	147	0	63
62	433	0	106
62	519	0	112
62	689	0	113
62	692	0	113
62	694	0	113
62	706	0	113
62	1570	0	131
62	1996	0	132
62	2432	0	132
62	2686	0	132
62	2772	0	132
62	3676	0	136
62	4316	0	136
62	5460	0	138
63	150	0	64
63	374	0	105
63	513	0	112
63	666	0	113
63	691	0	113
63	738	0	114
63	1376	0	130
63	1694	0	131
63	2318	0	132
63	2776	0	132
63	2984	0	135
63	3384	0	136
63	4308	0	136
63	5344	0	138
63	5476	0	138
64	152	0	65
64	254	0	92
64	278	0	98
64	343	0	104
64	386	0	105
64	458	0	110
64	581	0	113
64	661	0	113
64	683	0	113
64	720	0	113
64	722	0	113
64	734	0	114
64	828	0	116
64	830	0	116
64	978	0	119
64	1022	0	119
64	1358	0	130
64	1438	0	131
64	1680	0	131
64	1758	0	131
64	1926	0	132
64	2050	0	132
64	2646	0	132
64	2664	0	132
64	2668	0	132
64	2722	0	132
64	3256	0	136
64	3312	0	136
64	3356	0	136
64	3704	0	136
64	4068	0	136
64	4780	0	136
64	4792	0	136
64	4836	0	136
64	4920	0	137
64	4964	0	137
64	5596	0	144
65	157	0	66
65	457	0	110
65	827	0	116
65	1024	0	119
65	1172	0	120
65	1428	0	131
65	1530	0	131
65	1536	0	131
65	1802	0	131
65	2092	0	132
65	2200	0	132
65	2710	0	132
65	3308	0	136
65	3800	0	136
65	3996	0	136
65	4796	0	136
65	4852	0	137
65	4872	0	137
65	5532	0	138
66	165	0	67
66	178	0	73
66	403	0	106
66	416	0	106
66	463	0	110
66	643	0	113
66	779	0	114
66	784	0	115
66	786	0	115
66	1042	0	119
66	1900	0	132
66	1904	0	132
66	2308	0	132
66	2484	0	132
66	2634	0	132
66	4644	0	136
67	167	0	68
67	414	0	106
67	420	0	106
67	470	0	111
67	1718	0	131
67	1892	0	132
67	2908	0	135
67	2916	0	135
68	168	0	69
68	174	0	72
68	209	0	86
68	411	0	106
68	415	0	106
68	472	0	111
68	1044	0	119
68	1062	0	119
68	1404	0	130
68	2636	0	132
68	4380	0	136
68	4400	0	136
68	4436	0	136
69	169	0	70
69	184	0	76
69	210	0	86
69	402	0	106
69	1628	0	131
69	2486	0	132
69	2624	0	132
69	2858	0	135
69	2864	0	135
69	2900	0	135
69	2920	0	135
70	170	0	71
70	197	0	81
70	203	0	85
70	418	0	106
70	782	0	115
70	785	0	115
70	1068	0	119
70	1094	0	120
70	1392	0	130
70	1716	0	131
70	2312	0	132
70	2868	0	135
71	171	0	72
71	192	0	79
71	398	0	105
71	641	0	113
71	799	0	115
71	989	0	119
71	1120	0	120
71	1124	0	120
71	2314	0	132
71	2482	0	132
71	2862	0	135
72	175	0	73
72	211	0	86
72	461	0	110
72	770	0	114
72	1046	0	119
72	1066	0	119
72	1390	0	130
72	1872	0	132
72	2242	0	132
72	2292	0	132
72	2474	0	132
72	2628	0	132
72	2632	0	132
72	4432	0	136
72	4648	0	136
73	180	0	74
73	189	0	78
73	409	0	106
73	645	0	113
73	777	0	114
73	1082	0	120
73	1086	0	120
73	1396	0	130
73	1408	0	130
73	2306	0	132
73	2898	0	135
74	181	0	75
74	205	0	85
74	207	0	86
74	213	0	87
74	1074	0	120
74	1398	0	130
74	2496	0	132
74	4424	0	136
75	182	0	76
75	1098	0	120
75	1114	0	120
75	2494	0	132
76	185	0	77
77	187	0	78
77	190	0	78
77	214	0	87
77	399	0	105
77	406	0	106
77	988	0	119
77	1060	0	119
77	1100	0	120
77	1112	0	120
77	1706	0	131
77	1874	0	132
77	1888	0	132
77	2492	0	132
77	2504	0	132
78	191	0	79
78	621	0	113
78	800	0	115
78	945	0	119
78	984	0	119
78	1110	0	120
78	1508	0	131
78	1702	0	131
78	2468	0	132
78	2506	0	132
78	3620	0	136
78	5268	0	138
79	193	0	80
79	789	0	115
79	1878	0	132
79	2886	0	135
80	194	0	81
80	1084	0	120
80	2888	0	135
81	198	0	82
81	208	0	86
81	768	0	114
81	776	0	114
81	778	0	114
81	1708	0	131
81	2300	0	132
81	2304	0	132
81	2490	0	132
81	4388	0	136
81	4412	0	136
82	199	0	83
82	410	0	106
82	413	0	106
82	417	0	106
82	471	0	111
82	765	0	114
82	793	0	115
82	796	0	115
82	1058	0	119
82	1096	0	120
82	1894	0	132
82	1898	0	132
82	2906	0	135
82	4396	0	136
83	201	0	84
83	775	0	114
83	795	0	115
83	1054	0	119
83	1080	0	120
83	1088	0	120
83	1710	0	131
83	1882	0	132
83	1886	0	132
83	2472	0	132
83	2480	0	132
83	2870	0	135
83	4416	0	136
84	202	0	85
84	466	0	111
84	644	0	113
84	788	0	115
84	983	0	119
84	1394	0	130
84	1868	0	132
84	1908	0	132
84	2310	0	132
84	2854	0	134
84	2872	0	135
84	2880	0	135
85	206	0	86
85	473	0	111
85	787	0	115
85	790	0	115
85	1880	0	132
85	2296	0	132
85	2890	0	135
85	4384	0	136
86	212	0	87
86	405	0	106
86	462	0	110
86	766	0	114
86	1050	0	119
86	1388	0	130
86	1712	0	131
86	2902	0	135
86	4428	0	136
87	218	0	88
87	421	0	106
87	646	0	113
87	772	0	114
87	1122	0	120
87	1704	0	131
87	1910	0	132
87	2420	0	132
87	2860	0	135
87	2896	0	135
87	2910	0	135
87	2918	0	135
87	3616	0	136
88	223	0	89
88	583	0	113
88	893	0	116
88	922	0	119
88	1466	0	131
88	2046	0	132
88	2074	0	132
88	2118	0	132
88	2182	0	132
88	2274	0	132
88	2576	0	132
88	2712	0	132
88	3100	0	135
88	3692	0	136
88	3804	0	136
88	3892	0	136
88	4520	0	136
88	5132	0	138
88	5380	0	138
89	225	0	90
89	272	0	98
89	522	0	112
89	631	0	113
89	637	0	113
89	717	0	113
89	897	0	116
89	1514	0	131
89	2162	0	132
89	2996	0	135
89	3392	0	136
89	3588	0	136
89	3924	0	136
89	3952	0	136
89	4172	0	136
89	4292	0	136
89	4460	0	136
89	5420	0	138
89	5588	0	144
90	235	0	91
90	249	0	92
90	273	0	98
90	368	0	105
90	390	0	105
90	550	0	113
90	700	0	113
90	709	0	113
90	721	0	113
90	760	0	114
90	851	0	116
90	855	0	116
90	863	0	116
90	883	0	116
90	928	0	119
90	962	0	119
90	993	0	119
90	1180	0	120
90	1184	0	120
90	1212	0	120
90	1650	0	131
90	1668	0	131
90	1792	0	131
90	1918	0	132
90	3220	0	136
90	3872	0	136
90	4176	0	136
90	4296	0	136
90	4508	0	136
90	4668	0	136
90	4676	0	136
90	4784	0	136
91	245	0	92
91	1242	0	121
91	1572	0	131
91	2724	0	132
91	2814	0	132
91	4960	0	137
92	255	0	93
92	257	0	94
92	450	0	110
92	495	0	112
92	614	0	113
92	822	0	116
92	826	0	116
92	979	0	119
92	1020	0	119
92	2048	0	132
92	2186	0	132
92	2354	0	132
92	3192	0	135
92	3460	0	136
92	3508	0	136
92	4808	0	136
92	5108	0	138
93	256	0	94
93	497	0	112
93	889	0	116
93	900	0	116
93	910	0	119
93	975	0	119
93	1000	0	119
93	1528	0	131
93	2086	0	132
93	2206	0	132
93	2578	0	132
93	2644	0	132
93	4820	0	136
93	4848	0	137
93	5084	0	138
93	5096	0	138
94	258	0	95
94	291	0	100
94	306	0	101
94	317	0	101
94	338	0	103
94	354	0	105
94	358	0	105
94	587	0	113
94	726	0	114
94	836	0	116
94	839	0	116
94	911	0	119
94	959	0	119
94	1154	0	120
94	1672	0	131
94	1726	0	131
94	1842	0	132
94	1950	0	132
94	2056	0	132
94	2070	0	132
94	2108	0	132
94	2152	0	132
94	2158	0	132
94	2180	0	132
94	2336	0	132
94	2344	0	132
94	2384	0	132
94	3104	0	135
94	3112	0	135
94	3396	0	136
94	4188	0	136
94	4492	0	136
94	4916	0	137
94	5072	0	138
94	5176	0	138
94	5184	0	138
94	5384	0	138
95	259	0	96
95	298	0	100
95	352	0	105
95	453	0	110
95	725	0	114
95	909	0	119
95	933	0	119
95	1174	0	120
95	1804	0	131
95	2112	0	132
95	2220	0	132
95	2270	0	132
95	2356	0	132
95	2608	0	132
95	2662	0	132
95	3072	0	135
95	3084	0	135
95	3096	0	135
95	3144	0	135
95	3728	0	136
95	4752	0	136
95	4884	0	137
95	5088	0	138
96	263	0	97
96	265	0	97
96	505	0	112
96	798	0	115
96	866	0	116
96	954	0	119
96	990	0	119
96	1108	0	120
96	1132	0	120
96	1498	0	131
96	1826	0	132
96	1912	0	132
96	2240	0	132
96	2246	0	132
96	2452	0	132
96	2932	0	135
96	3480	0	136
96	3576	0	136
96	3612	0	136
96	3948	0	136
96	4076	0	136
96	4152	0	136
96	4656	0	136
96	4708	0	136
97	267	0	98
97	348	0	104
97	382	0	105
97	387	0	105
97	529	0	112
97	533	0	112
97	604	0	113
97	890	0	116
97	916	0	119
97	1326	0	130
97	1818	0	132
97	1822	0	132
97	1916	0	132
97	1974	0	132
97	2278	0	132
97	2328	0	132
97	2612	0	132
97	2926	0	135
97	3040	0	135
97	3512	0	136
97	3788	0	136
97	4300	0	136
97	4584	0	136
97	5036	0	138
97	5124	0	138
97	5364	0	138
97	5528	0	138
97	5536	0	139
97	5580	0	144
98	280	0	99
98	432	0	106
98	697	0	113
98	1196	0	120
98	1316	0	130
98	2038	0	132
98	2560	0	132
98	2690	0	132
98	2726	0	132
98	2812	0	132
98	3432	0	136
98	4320	0	136
98	5336	0	138
99	288	0	100
99	351	0	105
99	824	0	116
99	886	0	116
99	888	0	116
99	920	0	119
99	1480	0	131
99	2078	0	132
99	2272	0	132
99	2276	0	132
99	2614	0	132
99	2660	0	132
99	2666	0	132
99	2704	0	132
99	2708	0	132
99	3140	0	135
99	3448	0	136
99	3736	0	136
99	3992	0	136
99	4580	0	136
99	4856	0	137
99	4876	0	137
99	5112	0	138
100	304	0	101
100	451	0	110
100	455	0	110
100	534	0	112
100	536	0	113
100	538	0	113
100	895	0	116
100	905	0	119
100	1524	0	131
100	1742	0	131
100	2042	0	132
100	2090	0	132
100	2094	0	132
100	2268	0	132
100	2334	0	132
100	2348	0	132
100	3076	0	135
100	3092	0	135
100	3348	0	136
100	4200	0	136
100	4748	0	136
100	4804	0	136
100	4864	0	137
100	4892	0	137
100	5032	0	138
100	5516	0	138
101	324	0	102
101	384	0	105
101	482	0	112
101	530	0	112
101	548	0	113
101	574	0	113
101	576	0	113
101	609	0	113
101	624	0	113
101	710	0	113
101	1348	0	130
101	1452	0	131
101	1494	0	131
101	1602	0	131
101	1748	0	131
101	1808	0	132
101	1942	0	132
101	2372	0	132
101	2650	0	132
101	2670	0	132
101	3572	0	136
101	3940	0	136
101	4016	0	136
101	4336	0	136
101	4552	0	136
101	5584	0	144
102	326	0	103
102	797	0	115
102	2244	0	132
102	2248	0	132
102	2414	0	132
102	2418	0	132
102	4652	0	136
102	4716	0	136
103	339	0	104
103	357	0	105
103	454	0	110
103	493	0	112
103	615	0	113
103	627	0	113
103	704	0	113
103	841	0	116
103	874	0	116
103	998	0	119
103	1208	0	120
103	1368	0	130
103	1458	0	131
103	1562	0	131
103	1582	0	131
103	1658	0	131
103	2004	0	132
103	2032	0	132
103	2098	0	132
103	3152	0	135
103	3444	0	136
103	3684	0	136
103	4108	0	136
103	4528	0	136
103	4896	0	137
103	5052	0	138
103	5576	0	144
104	350	0	105
104	976	0	119
104	1444	0	131
104	1448	0	131
104	1550	0	131
104	2702	0	132
104	3088	0	135
104	5104	0	138
105	401	0	106
105	404	0	106
105	465	0	111
105	1052	0	119
105	1406	0	130
105	2488	0	132
105	2500	0	132
105	2878	0	135
105	4408	0	136
106	439	0	107
106	814	0	116
106	2400	0	132
106	3420	0	136
107	447	0	108
107	452	0	110
107	496	0	112
107	582	0	113
107	723	0	113
107	825	0	116
107	999	0	119
107	1170	0	120
107	1534	0	131
107	2080	0	132
107	2096	0	132
107	2194	0	132
107	3304	0	136
107	3352	0	136
107	4004	0	136
107	4208	0	136
107	5080	0	138
107	5188	0	138
107	5572	0	144
108	448	0	109
108	1430	0	131
108	1538	0	131
108	1544	0	131
108	2116	0	132
108	2190	0	132
108	2196	0	132
108	2584	0	132
108	3148	0	135
108	3984	0	136
108	4216	0	136
108	4284	0	136
108	4860	0	137
108	4868	0	137
108	4912	0	137
108	5076	0	138
108	5324	0	138
109	449	0	110
109	456	0	110
109	823	0	116
109	894	0	116
109	906	0	119
109	1432	0	131
109	1542	0	131
109	2218	0	132
109	3456	0	136
109	3732	0	136
109	4000	0	136
109	4204	0	136
109	4212	0	136
110	464	0	111
110	767	0	114
110	780	0	114
110	794	0	115
110	1048	0	119
110	1896	0	132
110	2302	0	132
110	2498	0	132
111	475	0	112
111	763	0	114
111	783	0	115
111	1106	0	120
111	1130	0	120
111	1386	0	130
111	1402	0	130
111	1418	0	131
111	1906	0	132
111	2422	0	132
111	2470	0	132
111	2478	0	132
111	2626	0	132
111	2866	0	135
111	2876	0	135
111	2882	0	135
111	2894	0	135
111	2912	0	135
111	4440	0	136
111	4640	0	136
112	535	0	113
112	887	0	116
112	974	0	119
112	977	0	119
112	1532	0	131
112	1548	0	131
112	2082	0	132
112	2184	0	132
112	2214	0	132
112	2222	0	132
112	3196	0	135
112	3248	0	136
112	3720	0	136
112	3888	0	136
112	4924	0	137
113	724	0	114
113	902	0	117
113	923	0	119
113	1546	0	131
113	1800	0	131
113	2084	0	132
113	2202	0	132
113	2352	0	132
113	2700	0	132
113	4744	0	136
113	4816	0	136
114	781	0	115
114	792	0	115
114	1070	0	119
114	4392	0	136
114	4420	0	136
115	801	0	116
115	1378	0	130
115	1700	0	131
115	2398	0	132
115	2436	0	132
115	2684	0	132
115	3540	0	136
115	3632	0	136
115	5444	0	138
115	5464	0	138
116	901	0	117
116	1434	0	131
116	1552	0	131
116	2204	0	132
116	2580	0	132
116	3452	0	136
116	4008	0	136
116	4812	0	136
117	903	0	118
117	907	0	119
117	1446	0	131
117	2216	0	132
118	904	0	119
118	908	0	119
118	921	0	119
118	1540	0	131
118	2076	0	132
118	2192	0	132
118	2350	0	132
118	3080	0	135
118	3724	0	136
118	4880	0	137
119	1072	0	120
119	1414	0	131
120	1244	0	122
120	1284	0	129
120	2744	0	132
120	2784	0	132
120	2824	0	132
120	2842	0	132
121	1246	0	123
121	1250	0	124
121	1256	0	126
121	1264	0	128
121	1268	0	129
121	1282	0	129
121	1288	0	129
121	2732	0	132
121	2740	0	132
121	2750	0	132
121	2756	0	132
121	2762	0	132
121	2832	0	132
122	1248	0	124
122	1258	0	126
122	1278	0	129
122	1292	0	130
122	1296	0	130
122	2730	0	132
122	2746	0	132
122	2826	0	132
122	2830	0	132
122	2838	0	132
123	1252	0	125
123	1300	0	130
123	1304	0	130
123	1308	0	130
123	2738	0	132
123	2760	0	132
124	1254	0	126
124	1272	0	129
124	1286	0	129
124	1312	0	130
124	2734	0	132
124	2754	0	132
124	2764	0	132
124	2834	0	132
125	1260	0	127
125	1276	0	129
125	1280	0	129
125	1298	0	130
125	1310	0	130
125	1314	0	130
125	2742	0	132
125	2816	0	132
125	2820	0	132
125	2840	0	132
126	1262	0	128
126	1270	0	129
126	1274	0	129
126	1294	0	130
126	2728	0	132
126	2748	0	132
126	2752	0	132
126	2818	0	132
126	2822	0	132
126	2836	0	132
126	5332	0	138
127	1266	0	129
127	1574	0	131
127	2736	0	132
127	2758	0	132
127	2766	0	132
127	2828	0	132
127	4280	0	136
127	5328	0	138
128	1290	0	130
128	1302	0	130
128	1306	0	130
129	1412	0	131
130	1806	0	132
131	2394	0	132
131	3424	0	136
131	3644	0	136
131	5440	0	138

