version 3
run General-373-20250904-14:13:22-15824
attr configname General
attr datetime 20250904-14:13:22
attr datetimef 20250904-141322
attr experiment General
attr inifile omnetpp.ini
attr iterationvars ""
attr iterationvarsd ""
attr iterationvarsf ""
attr measurement ""
attr network TaxiNetwork
attr processid 15824
attr repetition 373
attr replication #373
attr resultdir results
attr runnumber 373
attr seedset 373
config network TaxiNetwork
config seed-set 373
config num-rngs 1
config sim-time-limit 10s
config repeat 500
config *.numWalkers 1
config *.enableDuplication true
config *.rc 700
config **.node[0].xCor 2933
config **.node[0].yCor 2747
config **.node[1].xCor 2919
config **.node[1].yCor 2817
config **.node[2].xCor 2910
config **.node[2].yCor 2861
config **.node[3].xCor 2429
config **.node[3].yCor 2851
config **.node[4].xCor 2908
config **.node[4].yCor 2714
config **.node[5].xCor 2606
config **.node[5].yCor 2722
config **.node[6].xCor 2575
config **.node[6].yCor 2753
config **.node[7].xCor 2654
config **.node[7].yCor 2513
config **.node[8].xCor 2773
config **.node[8].yCor 2580
config **.node[9].xCor 3043
config **.node[9].yCor 2780
config **.node[10].xCor 3020
config **.node[10].yCor 2813
config **.node[11].xCor 2599
config **.node[11].yCor 2300
config **.node[12].xCor 2917
config **.node[12].yCor 2698
config **.node[13].xCor 2625
config **.node[13].yCor 2641
config **.node[14].xCor 2604
config **.node[14].yCor 2790
config **.node[15].xCor 2786
config **.node[15].yCor 3082
config **.node[16].xCor 2603
config **.node[16].yCor 2802
config **.node[17].xCor 2637
config **.node[17].yCor 2869
config **.node[18].xCor 2675
config **.node[18].yCor 2955
config **.node[19].xCor 2845
config **.node[19].yCor 2937
config **.node[20].xCor 2860
config **.node[20].yCor 2888
config **.node[21].xCor 2843
config **.node[21].yCor 4158
config **.node[22].xCor 2852
config **.node[22].yCor 4017
config **.node[23].xCor 2892
config **.node[23].yCor 4961
config **.node[24].xCor 2313
config **.node[24].yCor 3993
config **.node[25].xCor 2891
config **.node[25].yCor 4959
config **.node[26].xCor 2370
config **.node[26].yCor 4050
config **.node[27].xCor 2788
config **.node[27].yCor 3958
config **.node[28].xCor 2819
config **.node[28].yCor 4428
config **.node[29].xCor 2790
config **.node[29].yCor 3761
config **.node[30].xCor 2809
config **.node[30].yCor 2908
config **.node[31].xCor 2919
config **.node[31].yCor 3575
config **.node[32].xCor 2946
config **.node[32].yCor 3466
config **.node[33].xCor 2911
config **.node[33].yCor 3453
config **.node[34].xCor 2370
config **.node[34].yCor 3656
config **.node[35].xCor 2438
config **.node[35].yCor 3738
config **.node[36].xCor 2737
config **.node[36].yCor 3570
config **.node[37].xCor 2921
config **.node[37].yCor 3698
config **.node[38].xCor 2907
config **.node[38].yCor 5197
config **.node[39].xCor 2860
config **.node[39].yCor 3852
config **.node[40].xCor 2927
config **.node[40].yCor 3684
config **.node[41].xCor 3023
config **.node[41].yCor 5313
config **.node[42].xCor 3220
config **.node[42].yCor 5811
config **.node[43].xCor 3432
config **.node[43].yCor 5715
config **.node[44].xCor 2754
config **.node[44].yCor 2463
config **.node[45].xCor 2646
config **.node[45].yCor 2673
config **.node[46].xCor 3051
config **.node[46].yCor 2792
config **.node[47].xCor 1666
config **.node[47].yCor 3697
config **.node[48].xCor 1662
config **.node[48].yCor 3694
config **.node[49].xCor 1664
config **.node[49].yCor 3667
config **.node[50].xCor 1660
config **.node[50].yCor 3664
config **.node[51].xCor 1710
config **.node[51].yCor 3573
config **.node[52].xCor 2082
config **.node[52].yCor 2650
config **.node[53].xCor 2086
config **.node[53].yCor 2657
config **.node[54].xCor 2257
config **.node[54].yCor 3232
config **.node[55].xCor 2258
config **.node[55].yCor 3225
config **.node[56].xCor 1926
config **.node[56].yCor 2570
config **.node[57].xCor 1926
config **.node[57].yCor 2576
config **.node[58].xCor 2104
config **.node[58].yCor 1758
config **.node[59].xCor 1957
config **.node[59].yCor 1826
config **.node[60].xCor 3473
config **.node[60].yCor 1523
config **.node[61].xCor 3335
config **.node[61].yCor 1726
config **.node[62].xCor 3478
config **.node[62].yCor 1517
config **.node[63].xCor 3386
config **.node[63].yCor 2119
config **.node[64].xCor 3474
config **.node[64].yCor 1762
config **.node[65].xCor 3797
config **.node[65].yCor 2099
config **.node[66].xCor 3642
config **.node[66].yCor 2136
config **.node[67].xCor 3481
config **.node[67].yCor 2334
config **.node[68].xCor 3088
config **.node[68].yCor 1505
config **.node[69].xCor 3037
config **.node[69].yCor 1693
config **.node[70].xCor 3026
config **.node[70].yCor 1700
config **.node[71].xCor 3019
config **.node[71].yCor 669
config **.node[72].xCor 3513
config **.node[72].yCor 1358
config **.node[73].xCor 3545
config **.node[73].yCor 1230
config **.node[74].xCor 4228
config **.node[74].yCor 4220
config **.node[75].xCor 3379
config **.node[75].yCor 1207
config **.node[76].xCor 3596
config **.node[76].yCor 963
config **.node[77].xCor 3637
config **.node[77].yCor 1188
config **.node[78].xCor 3759
config **.node[78].yCor 1030
config **.node[79].xCor 2918
config **.node[79].yCor 1455
config **.node[80].xCor 2711
config **.node[80].yCor 1297
config **.node[81].xCor 439
config **.node[81].yCor 1623
config **.node[82].xCor 2857
config **.node[82].yCor 3581
config **.node[83].xCor 2858
config **.node[83].yCor 3584
config **.node[84].xCor 2999
config **.node[84].yCor 2636
config **.node[85].xCor 2905
config **.node[85].yCor 2778
config **.node[86].xCor 2653
config **.node[86].yCor 2845
config **.node[87].xCor 2864
config **.node[87].yCor 2836
config **.node[88].xCor 2426
config **.node[88].yCor 2892
config **.node[89].xCor 2964
config **.node[89].yCor 2804
config **.node[90].xCor 2586
config **.node[90].yCor 3135
config **.node[91].xCor 2864
config **.node[91].yCor 2980
config **.node[92].xCor 2527
config **.node[92].yCor 3219
config **.node[93].xCor 2863
config **.node[93].yCor 3142
config **.node[94].xCor 2485
config **.node[94].yCor 3269
config **.node[95].xCor 2653
config **.node[95].yCor 1065
config **.node[96].xCor 4062
config **.node[96].yCor 400
config **.node[97].xCor 5762
config **.node[97].yCor 3023
config **.node[98].xCor 1414
config **.node[98].yCor 3461
config **.node[99].xCor 2911
config **.node[99].yCor 1737
config **.node[100].xCor 2595
config **.node[100].yCor 2299
config **.node[101].xCor 2702
config **.node[101].yCor 3419
config **.node[102].xCor 2813
config **.node[102].yCor 3307
config **.node[103].xCor 2638
config **.node[103].yCor 2258
config **.node[104].xCor 2590
config **.node[104].yCor 3125
config **.node[105].xCor 1856
config **.node[105].yCor 2990
config **.node[106].xCor 1894
config **.node[106].yCor 2239
config **.node[107].xCor 383
config **.node[107].yCor 1251
config **.node[108].xCor 3447
config **.node[108].yCor 5489
config **.node[109].xCor 3450
config **.node[109].yCor 5697
config **.node[110].xCor 2719
config **.node[110].yCor 1920
config **.node[111].xCor 2085
config **.node[111].yCor 2389
config **.node[112].xCor 1910
config **.node[112].yCor 2548
config **.node[113].xCor 2069
config **.node[113].yCor 2050
config **.node[114].xCor 2184
config **.node[114].yCor 2209
config **.node[115].xCor 2278
config **.node[115].yCor 2390
config **.node[116].xCor 2249
config **.node[116].yCor 2299
config **.node[117].xCor 2356
config **.node[117].yCor 2303
config **.node[118].xCor 2192
config **.node[118].yCor 2475
config **.node[119].xCor 1720
config **.node[119].yCor 2911
config **.node[120].xCor 2400
config **.node[120].yCor 2887
config **.node[121].xCor 3344
config **.node[121].yCor 1890
config **.node[122].xCor 3136
config **.node[122].yCor 2418
config **.node[123].xCor 3243
config **.node[123].yCor 2525
config **.node[124].xCor 2396
config **.node[124].yCor 1267
config **.node[125].xCor 467
config **.node[125].yCor 1875
config **.node[126].xCor 3506
config **.node[126].yCor 1221
config **.node[127].xCor 1034
config **.node[127].yCor 1474
config **.node[128].xCor 2908
config **.node[128].yCor 1784
config **.node[129].xCor 2876
config **.node[129].yCor 1761
config **.node[130].xCor 2849
config **.node[130].yCor 1795
config **.node[131].xCor 3029
config **.node[131].yCor 1859
config **.node[132].xCor 2924
config **.node[132].yCor 1848
config **.node[133].xCor 3493
config **.node[133].yCor 1559
config **.node[134].xCor 2760
config **.node[134].yCor 1761
config **.node[135].xCor 1644
config **.node[135].yCor 3755
config **.node[136].xCor 1463
config **.node[136].yCor 3432
config **.node[137].xCor 2595
config **.node[137].yCor 2849
config **.node[138].xCor 2581
config **.node[138].yCor 2867
config **.node[139].xCor 2524
config **.node[139].yCor 2911
config **.node[140].xCor 2570
config **.node[140].yCor 2924
config **.node[141].xCor 2676
config **.node[141].yCor 2890
config **.node[142].xCor 2666
config **.node[142].yCor 2876
config **.node[143].xCor 3735
config **.node[143].yCor 1726
config **.node[144].xCor 1637
config **.node[144].yCor 3438

vector 0 TaxiNetwork.node[15] visitedPerTimestep ETV
vector 1 TaxiNetwork.node[9] visitedPerTimestep ETV
vector 2 TaxiNetwork.node[139] visitedPerTimestep ETV
vector 3 TaxiNetwork.node[2] visitedPerTimestep ETV
vector 4 TaxiNetwork.node[10] visitedPerTimestep ETV
vector 5 TaxiNetwork.node[86] visitedPerTimestep ETV
vector 6 TaxiNetwork.node[13] visitedPerTimestep ETV
vector 7 TaxiNetwork.node[142] visitedPerTimestep ETV
vector 8 TaxiNetwork.node[4] visitedPerTimestep ETV
vector 9 TaxiNetwork.node[30] visitedPerTimestep ETV
vector 10 TaxiNetwork.node[104] visitedPerTimestep ETV
vector 11 TaxiNetwork.node[44] visitedPerTimestep ETV
vector 12 TaxiNetwork.node[91] visitedPerTimestep ETV
vector 13 TaxiNetwork.node[19] visitedPerTimestep ETV
vector 14 TaxiNetwork.node[45] visitedPerTimestep ETV
vector 15 TaxiNetwork.node[89] visitedPerTimestep ETV
vector 16 TaxiNetwork.node[17] visitedPerTimestep ETV
vector 17 TaxiNetwork.node[92] visitedPerTimestep ETV
vector 18 TaxiNetwork.node[54] visitedPerTimestep ETV
vector 19 TaxiNetwork.node[34] visitedPerTimestep ETV
vector 20 TaxiNetwork.node[31] visitedPerTimestep ETV
vector 21 TaxiNetwork.node[32] visitedPerTimestep ETV
vector 22 TaxiNetwork.node[137] visitedPerTimestep ETV
vector 23 TaxiNetwork.node[111] visitedPerTimestep ETV
vector 24 TaxiNetwork.node[116] visitedPerTimestep ETV
vector 25 TaxiNetwork.node[88] visitedPerTimestep ETV
vector 26 TaxiNetwork.node[93] visitedPerTimestep ETV
vector 27 TaxiNetwork.node[55] visitedPerTimestep ETV
vector 28 TaxiNetwork.node[3] visitedPerTimestep ETV
vector 29 TaxiNetwork.node[16] visitedPerTimestep ETV
vector 30 TaxiNetwork.node[7] visitedPerTimestep ETV
vector 31 TaxiNetwork.node[87] visitedPerTimestep ETV
vector 32 TaxiNetwork.node[100] visitedPerTimestep ETV
vector 33 TaxiNetwork.node[18] visitedPerTimestep ETV
vector 34 TaxiNetwork.node[105] visitedPerTimestep ETV
vector 35 TaxiNetwork.node[98] visitedPerTimestep ETV
vector 36 TaxiNetwork.node[49] visitedPerTimestep ETV
vector 37 TaxiNetwork.node[48] visitedPerTimestep ETV
vector 38 TaxiNetwork.node[51] visitedPerTimestep ETV
vector 39 TaxiNetwork.node[47] visitedPerTimestep ETV
vector 40 TaxiNetwork.node[119] visitedPerTimestep ETV
vector 41 TaxiNetwork.node[112] visitedPerTimestep ETV
vector 42 TaxiNetwork.node[114] visitedPerTimestep ETV
vector 43 TaxiNetwork.node[59] visitedPerTimestep ETV
vector 44 TaxiNetwork.node[106] visitedPerTimestep ETV
vector 45 TaxiNetwork.node[136] visitedPerTimestep ETV
vector 46 TaxiNetwork.node[50] visitedPerTimestep ETV
vector 47 TaxiNetwork.node[135] visitedPerTimestep ETV
vector 48 TaxiNetwork.node[144] visitedPerTimestep ETV
vector 49 TaxiNetwork.node[57] visitedPerTimestep ETV
vector 50 TaxiNetwork.node[113] visitedPerTimestep ETV
vector 51 TaxiNetwork.node[90] visitedPerTimestep ETV
vector 52 TaxiNetwork.node[33] visitedPerTimestep ETV
vector 53 TaxiNetwork.node[85] visitedPerTimestep ETV
vector 54 TaxiNetwork.node[6] visitedPerTimestep ETV
vector 55 TaxiNetwork.node[94] visitedPerTimestep ETV
vector 56 TaxiNetwork.node[35] visitedPerTimestep ETV
vector 57 TaxiNetwork.node[1] visitedPerTimestep ETV
vector 58 TaxiNetwork.node[103] visitedPerTimestep ETV
vector 59 TaxiNetwork.node[53] visitedPerTimestep ETV
vector 60 TaxiNetwork.node[140] visitedPerTimestep ETV
vector 61 TaxiNetwork.node[118] visitedPerTimestep ETV
vector 62 TaxiNetwork.node[141] visitedPerTimestep ETV
vector 63 TaxiNetwork.node[46] visitedPerTimestep ETV
vector 64 TaxiNetwork.node[84] visitedPerTimestep ETV
vector 65 TaxiNetwork.node[138] visitedPerTimestep ETV
vector 66 TaxiNetwork.node[128] visitedPerTimestep ETV
vector 67 TaxiNetwork.node[130] visitedPerTimestep ETV
vector 68 TaxiNetwork.node[122] visitedPerTimestep ETV
vector 69 TaxiNetwork.node[14] visitedPerTimestep ETV
vector 70 TaxiNetwork.node[52] visitedPerTimestep ETV
vector 71 TaxiNetwork.node[12] visitedPerTimestep ETV
vector 72 TaxiNetwork.node[102] visitedPerTimestep ETV
vector 73 TaxiNetwork.node[101] visitedPerTimestep ETV
vector 74 TaxiNetwork.node[120] visitedPerTimestep ETV
vector 75 TaxiNetwork.node[82] visitedPerTimestep ETV
vector 76 TaxiNetwork.node[40] visitedPerTimestep ETV
vector 77 TaxiNetwork.node[37] visitedPerTimestep ETV
vector 78 TaxiNetwork.node[29] visitedPerTimestep ETV
vector 79 TaxiNetwork.node[123] visitedPerTimestep ETV
vector 80 TaxiNetwork.node[5] visitedPerTimestep ETV
vector 81 TaxiNetwork.node[134] visitedPerTimestep ETV
vector 82 TaxiNetwork.node[110] visitedPerTimestep ETV
vector 83 TaxiNetwork.node[11] visitedPerTimestep ETV
vector 84 TaxiNetwork.node[117] visitedPerTimestep ETV
vector 85 TaxiNetwork.node[115] visitedPerTimestep ETV
vector 86 TaxiNetwork.node[58] visitedPerTimestep ETV
vector 87 TaxiNetwork.node[121] visitedPerTimestep ETV
vector 88 TaxiNetwork.node[80] visitedPerTimestep ETV
vector 89 TaxiNetwork.node[124] visitedPerTimestep ETV
vector 90 TaxiNetwork.node[95] visitedPerTimestep ETV
vector 91 TaxiNetwork.node[79] visitedPerTimestep ETV
vector 92 TaxiNetwork.node[68] visitedPerTimestep ETV
vector 93 TaxiNetwork.node[60] visitedPerTimestep ETV
vector 94 TaxiNetwork.node[75] visitedPerTimestep ETV
vector 95 TaxiNetwork.node[69] visitedPerTimestep ETV
vector 96 TaxiNetwork.node[133] visitedPerTimestep ETV
vector 97 TaxiNetwork.node[78] visitedPerTimestep ETV
vector 98 TaxiNetwork.node[72] visitedPerTimestep ETV
vector 99 TaxiNetwork.node[131] visitedPerTimestep ETV
vector 100 TaxiNetwork.node[99] visitedPerTimestep ETV
vector 101 TaxiNetwork.node[73] visitedPerTimestep ETV
vector 102 TaxiNetwork.node[70] visitedPerTimestep ETV
vector 103 TaxiNetwork.node[77] visitedPerTimestep ETV
vector 104 TaxiNetwork.node[64] visitedPerTimestep ETV
vector 105 TaxiNetwork.node[66] visitedPerTimestep ETV
vector 106 TaxiNetwork.node[76] visitedPerTimestep ETV
vector 107 TaxiNetwork.node[61] visitedPerTimestep ETV
vector 108 TaxiNetwork.node[132] visitedPerTimestep ETV
vector 109 TaxiNetwork.node[0] visitedPerTimestep ETV
vector 110 TaxiNetwork.node[21] visitedPerTimestep ETV
vector 111 TaxiNetwork.node[22] visitedPerTimestep ETV
vector 112 TaxiNetwork.node[24] visitedPerTimestep ETV
vector 113 TaxiNetwork.node[83] visitedPerTimestep ETV
vector 114 TaxiNetwork.node[8] visitedPerTimestep ETV
vector 115 TaxiNetwork.node[36] visitedPerTimestep ETV
vector 116 TaxiNetwork.node[63] visitedPerTimestep ETV
vector 117 TaxiNetwork.node[56] visitedPerTimestep ETV
vector 118 TaxiNetwork.node[129] visitedPerTimestep ETV
vector 119 TaxiNetwork.node[65] visitedPerTimestep ETV
vector 120 TaxiNetwork.node[20] visitedPerTimestep ETV
vector 121 TaxiNetwork.node[143] visitedPerTimestep ETV
vector 122 TaxiNetwork.node[39] visitedPerTimestep ETV
vector 123 TaxiNetwork.node[74] visitedPerTimestep ETV
vector 124 TaxiNetwork.node[71] visitedPerTimestep ETV
vector 125 TaxiNetwork.node[126] visitedPerTimestep ETV
vector 126 TaxiNetwork.node[62] visitedPerTimestep ETV
vector 127 TaxiNetwork.node[96] visitedPerTimestep ETV
vector 128 TaxiNetwork.node[67] visitedPerTimestep ETV
vector 129 TaxiNetwork.node[26] visitedPerTimestep ETV
vector 130 TaxiNetwork.node[109] visitedPerTimestep ETV
vector 131 TaxiNetwork.node[42] visitedPerTimestep ETV
vector 132 TaxiNetwork.node[43] visitedPerTimestep ETV
vector 133 TaxiNetwork.node[41] visitedPerTimestep ETV
vector 134 TaxiNetwork.node[108] visitedPerTimestep ETV
vector 135 TaxiNetwork.node[25] visitedPerTimestep ETV
vector 136 TaxiNetwork.node[38] visitedPerTimestep ETV
vector 137 TaxiNetwork.node[23] visitedPerTimestep ETV
vector 138 TaxiNetwork.node[28] visitedPerTimestep ETV
vector 139 TaxiNetwork.node[27] visitedPerTimestep ETV
vector 140 TaxiNetwork.node[97] visitedPerTimestep ETV
vector 141 TaxiNetwork.node[127] visitedPerTimestep ETV
0	1	0	1
0	30	0	22
0	36	0	26
0	117	0	69
0	124	0	71
0	154	0	78
0	285	0	114
0	320	0	116
0	542	0	123
0	562	0	123
0	610	0	123
0	684	0	129
0	844	0	129
0	976	0	130
0	1302	0	132
0	1464	0	138
0	1606	0	138
0	1660	0	138
0	1782	0	138
0	2254	0	140
0	2314	0	140
0	2318	0	140
0	2464	0	140
0	2714	0	141
0	3340	0	142
0	3460	0	142
0	3680	0	142
0	4504	0	142
0	4540	0	142
0	4708	0	142
0	4996	0	142
0	5668	0	142
0	5692	0	142
0	5820	0	142
0	5860	0	142
0	5920	0	142
0	5976	0	142
0	5992	0	142
0	6744	0	142
0	6784	0	142
1	2	0	2
1	15	0	12
1	91	0	58
1	148	0	78
1	336	0	116
1	489	0	121
1	558	0	123
1	565	0	123
1	809	0	129
1	851	0	129
1	914	0	130
1	939	0	130
1	1070	0	130
1	1310	0	135
1	1342	0	138
1	1508	0	138
1	1690	0	138
1	1772	0	138
1	1808	0	138
1	2346	0	140
1	2446	0	140
1	2696	0	141
1	3184	0	142
1	3352	0	142
1	3604	0	142
1	4244	0	142
1	4308	0	142
1	4500	0	142
1	4704	0	142
1	5104	0	142
1	5212	0	142
1	5592	0	142
1	6236	0	142
1	6316	0	142
2	3	0	3
2	51	0	34
2	187	0	85
2	323	0	116
2	325	0	116
2	604	0	123
2	739	0	129
2	745	0	129
2	749	0	129
2	813	0	129
2	816	0	129
2	833	0	129
2	1098	0	130
2	1140	0	130
2	1186	0	130
2	1286	0	130
2	1358	0	138
2	1514	0	138
2	1520	0	138
2	1534	0	138
2	1854	0	138
2	2442	0	140
2	2652	0	141
2	2752	0	141
2	2784	0	141
2	3124	0	141
2	3208	0	142
2	3220	0	142
2	3268	0	142
2	3376	0	142
2	3404	0	142
2	3752	0	142
2	3856	0	142
2	4036	0	142
2	4384	0	142
2	4408	0	142
2	5204	0	142
2	5296	0	142
2	5372	0	142
2	5492	0	142
2	6296	0	142
2	6432	0	142
2	6800	0	142
3	4	0	4
3	133	0	72
3	149	0	78
3	176	0	83
3	261	0	112
3	276	0	112
3	563	0	123
3	685	0	129
3	829	0	129
3	838	0	129
3	846	0	129
3	1130	0	130
3	1398	0	138
3	1522	0	138
3	1810	0	138
3	2190	0	140
3	2200	0	140
3	2264	0	140
3	2300	0	140
3	2366	0	140
3	2456	0	140
3	2514	0	140
3	2866	0	141
3	3456	0	142
3	3728	0	142
3	4100	0	142
3	4248	0	142
3	4688	0	142
3	4724	0	142
3	5024	0	142
3	5404	0	142
3	5548	0	142
3	5948	0	142
3	6416	0	142
4	5	0	5
4	9	0	8
4	14	0	12
4	109	0	66
4	119	0	69
4	127	0	72
4	296	0	114
4	391	0	118
4	595	0	123
4	842	0	129
4	845	0	129
4	877	0	130
4	895	0	130
4	1458	0	138
4	1554	0	138
4	1572	0	138
4	1578	0	138
4	1814	0	138
4	2390	0	140
4	2414	0	140
4	2488	0	140
4	3316	0	142
4	3324	0	142
4	3668	0	142
4	3748	0	142
4	3956	0	142
4	4008	0	142
4	4064	0	142
4	4404	0	142
4	4836	0	142
4	5004	0	142
4	5232	0	142
4	5252	0	142
4	5304	0	142
4	5560	0	142
4	5708	0	142
4	5780	0	142
4	6464	0	142
4	6636	0	142
4	6720	0	142
5	6	0	6
5	101	0	64
5	186	0	85
5	263	0	112
5	368	0	117
5	437	0	121
5	516	0	121
5	686	0	129
5	850	0	129
5	1298	0	132
5	1488	0	138
5	1738	0	138
5	1774	0	138
5	1786	0	138
5	1840	0	138
5	1848	0	138
5	1942	0	140
5	2202	0	140
5	2294	0	140
5	2778	0	141
5	3036	0	141
5	3256	0	142
5	3304	0	142
5	3416	0	142
5	3800	0	142
5	4748	0	142
5	4780	0	142
5	4832	0	142
5	6840	0	142
6	7	0	7
6	24	0	18
6	31	0	22
6	50	0	34
6	191	0	85
6	275	0	112
6	292	0	114
6	326	0	116
6	498	0	121
6	568	0	123
6	588	0	123
6	618	0	123
6	741	0	129
6	839	0	129
6	884	0	130
6	921	0	130
6	978	0	130
6	981	0	130
6	1170	0	130
6	1340	0	138
6	1356	0	138
6	1394	0	138
6	1456	0	138
6	1516	0	138
6	1836	0	138
6	1976	0	140
6	2182	0	140
6	2196	0	140
6	2266	0	140
6	2276	0	140
6	2298	0	140
6	2436	0	140
6	2544	0	140
6	2574	0	140
6	2720	0	141
6	2782	0	141
6	2794	0	141
6	3060	0	141
6	4168	0	142
6	4260	0	142
6	4512	0	142
6	5364	0	142
6	5480	0	142
6	5628	0	142
6	5912	0	142
6	6352	0	142
6	6660	0	142
7	8	0	8
7	21	0	17
7	104	0	64
7	268	0	112
7	347	0	116
7	369	0	117
7	390	0	118
7	425	0	120
7	574	0	123
7	578	0	123
7	589	0	123
7	687	0	129
7	740	0	129
7	804	0	129
7	1196	0	130
7	1348	0	138
7	1390	0	138
7	1402	0	138
7	1512	0	138
7	1518	0	138
7	1600	0	138
7	1614	0	138
7	2000	0	140
7	2110	0	140
7	2290	0	140
7	2408	0	140
7	2448	0	140
7	2564	0	140
7	2604	0	140
7	3216	0	142
7	3300	0	142
7	4092	0	142
7	4312	0	142
7	4764	0	142
7	4808	0	142
7	5192	0	142
7	5472	0	142
7	5720	0	142
7	5804	0	142
7	5996	0	142
7	6772	0	142
8	10	0	9
8	37	0	26
8	102	0	64
8	165	0	80
8	167	0	81
8	341	0	116
8	467	0	121
8	572	0	123
8	575	0	123
8	742	0	129
8	817	0	129
8	919	0	130
8	1132	0	130
8	1158	0	130
8	1214	0	130
8	1498	0	138
8	2078	0	140
8	2274	0	140
8	2320	0	140
8	2368	0	140
8	2602	0	140
8	2642	0	141
8	2646	0	141
8	2726	0	141
8	3188	0	142
8	3272	0	142
8	3392	0	142
8	3620	0	142
8	3952	0	142
8	4508	0	142
8	4760	0	142
8	4976	0	142
8	5020	0	142
8	5324	0	142
8	5936	0	142
8	6256	0	142
8	6400	0	142
9	11	0	10
9	23	0	18
9	248	0	109
9	250	0	110
9	370	0	117
9	396	0	118
9	430	0	120
9	577	0	123
9	596	0	123
9	611	0	123
9	821	0	129
9	823	0	129
9	837	0	129
9	867	0	129
9	985	0	130
9	1162	0	130
9	1360	0	138
9	1804	0	138
9	2106	0	140
9	2518	0	140
9	2588	0	140
9	2598	0	140
9	3360	0	142
9	3632	0	142
9	4252	0	142
9	4728	0	142
9	5280	0	142
9	5392	0	142
9	6540	0	142
9	6648	0	142
9	6696	0	142
9	6808	0	142
10	12	0	11
10	108	0	66
10	132	0	72
10	190	0	85
10	251	0	110
10	287	0	114
10	445	0	121
10	470	0	121
10	528	0	122
10	533	0	122
10	587	0	123
10	918	0	130
10	1312	0	135
10	1392	0	138
10	1662	0	138
10	1668	0	138
10	1958	0	140
10	1986	0	140
10	2206	0	140
10	2454	0	140
10	2460	0	140
10	2550	0	140
10	2640	0	141
10	2750	0	141
10	2802	0	141
10	2838	0	141
10	3388	0	142
10	3636	0	142
10	3944	0	142
10	4000	0	142
10	4060	0	142
10	4076	0	142
10	4124	0	142
10	4524	0	142
10	6324	0	142
10	6564	0	142
10	6684	0	142
11	13	0	12
11	301	0	114
11	322	0	116
11	342	0	116
11	594	0	123
11	883	0	130
11	900	0	130
11	933	0	130
11	1148	0	130
11	1414	0	138
11	1692	0	138
11	1768	0	138
11	1980	0	140
11	2142	0	140
11	2386	0	140
11	2738	0	141
11	3252	0	142
11	3424	0	142
11	3488	0	142
11	4636	0	142
11	4680	0	142
11	4992	0	142
11	6284	0	142
11	6556	0	142
12	16	0	13
12	129	0	72
12	139	0	75
12	288	0	114
12	321	0	116
12	338	0	116
12	442	0	121
12	454	0	121
12	500	0	121
12	535	0	122
12	606	0	123
12	617	0	123
12	621	0	124
12	830	0	129
12	881	0	130
12	896	0	130
12	898	0	130
12	902	0	130
12	904	0	130
12	972	0	130
12	982	0	130
12	1112	0	130
12	1284	0	130
12	1938	0	140
12	2132	0	140
12	2136	0	140
12	2272	0	140
12	2288	0	140
12	2418	0	140
12	2584	0	140
12	3336	0	142
12	3412	0	142
12	3420	0	142
12	5060	0	142
12	5116	0	142
12	5376	0	142
12	5416	0	142
12	5452	0	142
12	5572	0	142
12	5620	0	142
12	6700	0	142
12	6712	0	142
13	17	0	14
13	81	0	52
13	99	0	63
13	120	0	69
13	125	0	71
13	157	0	79
13	164	0	80
13	302	0	114
13	333	0	116
13	541	0	123
13	592	0	123
13	603	0	123
13	818	0	129
13	926	0	130
13	977	0	130
13	1100	0	130
13	1212	0	130
13	1290	0	130
13	1300	0	132
13	1350	0	138
13	1700	0	138
13	2016	0	140
13	2468	0	140
13	2562	0	140
13	2810	0	141
13	3012	0	141
13	3048	0	141
13	3280	0	142
13	3972	0	142
13	3980	0	142
13	4080	0	142
13	5276	0	142
13	5336	0	142
13	5380	0	142
13	5604	0	142
13	5772	0	142
13	6208	0	142
13	6548	0	142
13	6560	0	142
13	6780	0	142
13	6796	0	142
14	18	0	15
14	123	0	71
14	246	0	109
14	291	0	114
14	313	0	115
14	393	0	118
14	496	0	121
14	527	0	122
14	549	0	123
14	924	0	130
14	1078	0	130
14	1102	0	130
14	1260	0	130
14	1274	0	130
14	1410	0	138
14	1484	0	138
14	1528	0	138
14	1604	0	138
14	1758	0	138
14	1778	0	138
14	2166	0	140
14	2410	0	140
14	2530	0	140
14	2582	0	140
14	2638	0	141
14	2670	0	141
14	3068	0	141
14	3148	0	142
14	3164	0	142
14	3720	0	142
14	3884	0	142
14	4004	0	142
14	4496	0	142
14	4568	0	142
14	4828	0	142
14	4848	0	142
14	4912	0	142
14	4988	0	142
14	5124	0	142
14	5340	0	142
14	5420	0	142
14	5552	0	142
14	5784	0	142
14	6460	0	142
15	19	0	16
15	29	0	22
15	39	0	26
15	258	0	112
15	271	0	112
15	433	0	121
15	561	0	123
15	683	0	129
15	957	0	130
15	1124	0	130
15	1160	0	130
15	1576	0	138
15	1688	0	138
15	1862	0	138
15	1926	0	140
15	2112	0	140
15	2268	0	140
15	2498	0	140
15	2844	0	141
15	3076	0	141
15	3200	0	142
15	3244	0	142
15	3344	0	142
15	4108	0	142
15	4640	0	142
15	5096	0	142
15	5332	0	142
15	5484	0	142
15	6276	0	142
15	6304	0	142
15	6596	0	142
15	6708	0	142
16	20	0	17
16	259	0	112
16	267	0	112
16	299	0	114
16	331	0	116
16	362	0	117
16	373	0	117
16	480	0	121
16	567	0	123
16	571	0	123
16	623	0	124
16	908	0	130
16	915	0	130
16	1120	0	130
16	1210	0	130
16	1716	0	138
16	1792	0	138
16	2140	0	140
16	2412	0	140
16	2452	0	140
16	2484	0	140
16	2644	0	141
16	2874	0	141
16	3196	0	142
16	4132	0	142
16	4564	0	142
16	4944	0	142
16	4952	0	142
16	5180	0	142
16	5236	0	142
16	5352	0	142
16	5636	0	142
16	5644	0	142
16	5752	0	142
16	5764	0	142
16	6176	0	142
16	6748	0	142
16	6812	0	142
17	22	0	18
17	38	0	26
17	147	0	78
17	163	0	80
17	185	0	85
17	318	0	115
17	332	0	116
17	468	0	121
17	490	0	121
17	506	0	121
17	517	0	121
17	544	0	123
17	551	0	123
17	951	0	130
17	1268	0	130
17	1338	0	138
17	1472	0	138
17	1482	0	138
17	1602	0	138
17	1686	0	138
17	2108	0	140
17	2180	0	140
17	2350	0	140
17	2378	0	140
17	2482	0	140
17	2558	0	140
17	2822	0	141
17	3384	0	142
17	3464	0	142
17	4128	0	142
17	4400	0	142
17	4544	0	142
17	4984	0	142
17	5208	0	142
17	5596	0	142
17	5632	0	142
17	5972	0	142
17	6160	0	142
17	6168	0	142
17	6348	0	142
18	25	0	19
18	458	0	121
18	486	0	121
18	605	0	123
18	751	0	129
18	796	0	129
18	835	0	129
18	1110	0	130
18	1266	0	130
18	2086	0	140
18	2306	0	140
18	2704	0	141
18	2790	0	141
18	3152	0	142
18	3160	0	142
18	3260	0	142
18	3400	0	142
18	3940	0	142
18	4152	0	142
18	4552	0	142
18	5200	0	142
18	5456	0	142
18	5624	0	142
18	5664	0	142
18	5856	0	142
18	5984	0	142
18	6804	0	142
18	6852	0	144
19	26	0	20
19	696	0	129
19	1370	0	138
19	1470	0	138
19	1720	0	138
19	1954	0	140
19	2666	0	141
19	2706	0	141
19	2770	0	141
19	2816	0	141
19	2820	0	141
19	4372	0	142
19	4928	0	142
19	5684	0	142
19	5728	0	142
19	6124	0	142
19	6336	0	142
20	27	0	21
20	446	0	121
20	532	0	122
20	600	0	123
20	691	0	129
20	880	0	130
20	942	0	130
20	1674	0	138
20	2216	0	140
20	2228	0	140
20	2480	0	140
20	4936	0	142
20	5612	0	142
20	5672	0	142
20	6128	0	142
20	6672	0	142
20	6792	0	142
21	28	0	22
21	184	0	85
21	273	0	112
21	297	0	114
21	371	0	117
21	455	0	121
21	531	0	122
21	602	0	123
21	875	0	130
21	879	0	130
21	903	0	130
21	1682	0	138
21	1812	0	138
21	1918	0	140
21	1948	0	140
21	2236	0	140
21	2250	0	140
21	2348	0	140
21	2352	0	140
21	2428	0	140
21	2450	0	140
21	2664	0	141
21	2812	0	141
21	3016	0	141
21	3024	0	141
21	3104	0	141
21	3112	0	141
21	3644	0	142
21	5300	0	142
21	5616	0	142
21	5712	0	142
21	5736	0	142
21	6032	0	142
21	6228	0	142
21	6292	0	142
22	32	0	23
22	41	0	27
22	365	0	117
22	395	0	118
22	579	0	123
22	747	0	129
22	1144	0	130
22	1264	0	130
22	1678	0	138
22	1694	0	138
22	2100	0	140
22	2396	0	140
22	2434	0	140
22	2568	0	140
22	2586	0	140
22	2680	0	141
22	3712	0	142
22	3792	0	142
22	4412	0	142
22	4584	0	142
22	4700	0	142
22	4792	0	142
22	5564	0	142
22	5968	0	142
22	6192	0	142
22	6656	0	142
23	33	0	24
23	178	0	84
23	423	0	120
23	859	0	129
23	1088	0	130
23	1548	0	138
23	2526	0	140
23	3788	0	142
23	3892	0	142
23	4436	0	142
23	4456	0	142
23	4668	0	142
23	5168	0	142
23	6388	0	142
23	6444	0	142
23	6820	0	142
24	34	0	25
24	174	0	83
24	309	0	115
24	399	0	118
24	934	0	130
24	1176	0	130
24	1316	0	137
24	1406	0	138
24	1422	0	138
24	1532	0	138
24	1964	0	140
24	2280	0	140
24	2538	0	140
24	2542	0	140
24	2654	0	141
24	2690	0	141
24	2854	0	141
24	3444	0	142
24	3572	0	142
24	4416	0	142
24	5176	0	142
24	5360	0	142
24	5896	0	142
24	6264	0	142
24	6576	0	142
25	35	0	26
25	79	0	51
25	189	0	85
25	293	0	114
25	364	0	117
25	422	0	120
25	466	0	121
25	487	0	121
25	581	0	123
25	682	0	129
25	899	0	130
25	1080	0	130
25	1150	0	130
25	1436	0	138
25	1486	0	138
25	1936	0	140
25	1966	0	140
25	2130	0	140
25	2284	0	140
25	2438	0	140
25	2534	0	140
25	2578	0	140
25	2730	0	141
25	2764	0	141
25	3228	0	142
25	3312	0	142
25	3532	0	142
25	3576	0	142
25	3744	0	142
25	3756	0	142
25	4440	0	142
25	4964	0	142
25	5396	0	142
25	5528	0	142
25	5540	0	142
25	5868	0	142
25	5944	0	142
25	6728	0	142
26	40	0	27
26	294	0	114
26	304	0	114
26	340	0	116
26	485	0	121
26	493	0	121
26	593	0	123
26	599	0	123
26	619	0	123
26	956	0	130
26	1304	0	133
26	1462	0	138
26	1684	0	138
26	1990	0	140
26	2090	0	140
26	2096	0	140
26	2210	0	140
26	2716	0	141
26	2760	0	141
26	2788	0	141
26	2842	0	141
26	3168	0	142
26	3320	0	142
26	3736	0	142
26	3876	0	142
26	3968	0	142
26	4116	0	142
26	5864	0	142
26	5932	0	142
26	6240	0	142
26	6272	0	142
26	6568	0	142
26	6704	0	142
27	42	0	28
27	144	0	77
27	151	0	78
27	314	0	115
27	316	0	115
27	389	0	118
27	457	0	121
27	478	0	121
27	515	0	121
27	591	0	123
27	754	0	129
27	925	0	130
27	949	0	130
27	1154	0	130
27	1294	0	131
27	1352	0	138
27	1368	0	138
27	1388	0	138
27	1610	0	138
27	2620	0	141
27	2746	0	141
27	3612	0	142
27	5600	0	142
27	5956	0	142
27	6120	0	142
27	6332	0	142
27	6736	0	142
27	6776	0	142
28	43	0	29
28	49	0	34
28	93	0	58
28	130	0	72
28	137	0	75
28	295	0	114
28	300	0	114
28	398	0	118
28	469	0	121
28	475	0	121
28	484	0	121
28	488	0	121
28	529	0	122
28	555	0	123
28	557	0	123
28	573	0	123
28	609	0	123
28	626	0	124
28	803	0	129
28	828	0	129
28	854	0	129
28	860	0	129
28	866	0	129
28	923	0	130
28	1156	0	130
28	1270	0	130
28	1282	0	130
28	1318	0	137
28	1432	0	138
28	1784	0	138
28	1930	0	140
28	1970	0	140
28	2208	0	140
28	2296	0	140
28	2364	0	140
28	2504	0	140
28	2674	0	141
28	3180	0	142
28	3212	0	142
28	3408	0	142
28	3484	0	142
28	3628	0	142
28	3676	0	142
28	3880	0	142
28	3888	0	142
28	4284	0	142
28	4684	0	142
28	5092	0	142
28	5316	0	142
28	5928	0	142
28	6248	0	142
28	6320	0	142
28	6584	0	142
28	6592	0	142
28	6620	0	142
28	6848	0	143
29	44	0	30
29	138	0	75
29	182	0	85
29	345	0	116
29	452	0	121
29	502	0	121
29	979	0	130
29	1172	0	130
29	1354	0	138
29	1558	0	138
29	1984	0	140
29	2178	0	140
29	3552	0	142
29	3824	0	142
29	4096	0	142
29	4156	0	142
29	4516	0	142
29	4556	0	142
29	5120	0	142
29	5744	0	142
29	5916	0	142
29	6408	0	142
29	6652	0	142
30	45	0	31
30	105	0	64
30	118	0	69
30	260	0	112
30	270	0	112
30	363	0	117
30	424	0	120
30	472	0	121
30	810	0	129
30	832	0	129
30	852	0	129
30	1126	0	130
30	1194	0	130
30	1314	0	136
30	1446	0	138
30	2188	0	140
30	2194	0	140
30	2466	0	140
30	2522	0	140
30	2656	0	141
30	2734	0	141
30	3052	0	141
30	3292	0	142
30	3624	0	142
30	3724	0	142
30	3948	0	142
30	4144	0	142
30	4300	0	142
30	4632	0	142
30	5400	0	142
30	5440	0	142
30	5908	0	142
30	6216	0	142
30	6572	0	142
30	6632	0	142
31	46	0	32
31	85	0	55
31	115	0	69
31	170	0	81
31	269	0	112
31	353	0	116
31	518	0	121
31	545	0	123
31	688	0	129
31	698	0	129
31	700	0	129
31	974	0	130
31	987	0	130
31	1122	0	130
31	1308	0	135
31	1380	0	138
31	1536	0	138
31	2004	0	140
31	2082	0	140
31	2092	0	140
31	2192	0	140
31	2754	0	141
31	3544	0	142
31	3740	0	142
31	4240	0	142
31	4592	0	142
31	4948	0	142
31	5444	0	142
31	5788	0	142
31	6196	0	142
31	6420	0	142
31	6608	0	142
32	47	0	33
32	110	0	66
32	308	0	115
32	350	0	116
32	354	0	116
32	419	0	120
32	624	0	124
32	628	0	124
32	681	0	129
32	967	0	130
32	1404	0	138
32	1494	0	138
32	1594	0	138
32	2062	0	140
32	2074	0	140
32	2512	0	140
32	3276	0	142
32	3356	0	142
32	3440	0	142
32	3516	0	142
32	3568	0	142
32	3596	0	142
32	3812	0	142
32	4188	0	142
32	4296	0	142
32	4340	0	142
32	4600	0	142
32	4644	0	142
32	4768	0	142
32	4844	0	142
32	5188	0	142
32	5500	0	142
32	6364	0	142
33	48	0	34
33	103	0	64
33	140	0	75
33	168	0	81
33	388	0	118
33	508	0	121
33	570	0	123
33	584	0	123
33	878	0	130
33	980	0	130
33	1296	0	132
33	1598	0	138
33	1844	0	138
33	1940	0	140
33	2374	0	140
33	2580	0	140
33	2862	0	141
33	3092	0	141
33	3816	0	142
33	3964	0	142
33	4136	0	142
33	4468	0	142
33	4716	0	142
33	4752	0	142
33	4940	0	142
33	5108	0	142
33	5312	0	142
33	5640	0	142
33	6344	0	142
33	6624	0	142
33	6640	0	142
33	6688	0	142
34	52	0	35
34	188	0	85
34	797	0	129
34	802	0	129
34	1096	0	130
34	1384	0	138
34	1728	0	138
34	1732	0	138
34	1752	0	138
34	2622	0	141
34	3764	0	142
34	3772	0	142
34	3784	0	142
34	3900	0	142
34	3928	0	142
34	4460	0	142
34	5136	0	142
34	5872	0	142
34	5888	0	142
34	6824	0	142
35	53	0	36
35	55	0	37
35	59	0	40
35	765	0	129
35	770	0	129
35	777	0	129
35	789	0	129
35	791	0	129
35	3904	0	142
35	3924	0	142
36	54	0	37
36	759	0	129
36	762	0	129
36	768	0	129
36	772	0	129
36	779	0	129
36	781	0	129
36	783	0	129
36	3908	0	142
36	3920	0	142
37	56	0	38
37	757	0	129
37	760	0	129
37	769	0	129
37	774	0	129
37	778	0	129
37	785	0	129
37	790	0	129
37	3912	0	142
37	5144	0	142
38	57	0	39
38	315	0	115
38	758	0	129
38	782	0	129
38	788	0	129
38	1386	0	138
38	1722	0	138
38	3916	0	142
38	5884	0	142
39	58	0	40
39	69	0	46
39	763	0	129
39	771	0	129
39	773	0	129
39	787	0	129
40	60	0	41
40	65	0	45
40	67	0	46
40	73	0	49
40	179	0	84
40	461	0	121
40	753	0	129
40	766	0	129
40	792	0	129
40	2624	0	141
40	3560	0	142
40	3776	0	142
40	4272	0	142
40	4452	0	142
40	5164	0	142
40	5880	0	142
41	61	0	42
41	76	0	51
41	78	0	51
41	194	0	85
41	462	0	121
41	464	0	121
41	855	0	129
41	863	0	129
41	1086	0	130
41	1092	0	130
41	1730	0	138
41	2540	0	140
41	2630	0	141
41	2798	0	141
42	62	0	43
42	192	0	85
42	474	0	121
42	827	0	129
42	856	0	129
42	932	0	130
42	1182	0	130
42	1444	0	138
42	1448	0	138
42	1492	0	138
42	2848	0	141
42	3056	0	141
42	4892	0	142
42	6456	0	142
43	63	0	44
43	857	0	129
43	930	0	130
43	2852	0	141
43	3584	0	142
44	64	0	45
44	77	0	51
44	310	0	115
44	386	0	118
44	460	0	121
44	800	0	129
44	864	0	129
44	929	0	130
44	1424	0	138
44	2124	0	140
44	2850	0	141
44	4176	0	142
44	4268	0	142
44	6372	0	142
44	6384	0	142
44	6448	0	142
45	66	0	46
45	68	0	46
45	767	0	129
45	1726	0	138
45	3768	0	142
45	3780	0	142
45	5140	0	142
45	5152	0	142
45	5160	0	142
46	70	0	47
46	761	0	129
46	764	0	129
46	775	0	129
46	780	0	129
46	5148	0	142
47	71	0	48
47	756	0	129
47	786	0	129
47	1724	0	138
47	5156	0	142
48	72	0	49
48	752	0	129
48	755	0	129
48	776	0	129
48	784	0	129
48	5876	0	142
49	74	0	50
49	928	0	130
49	935	0	130
49	1094	0	130
49	1184	0	130
49	1754	0	138
49	2120	0	140
49	2282	0	140
49	2856	0	141
49	3448	0	142
49	4040	0	142
49	4276	0	142
49	4616	0	142
49	5524	0	142
49	6380	0	142
49	6588	0	142
49	6828	0	142
50	75	0	51
50	463	0	121
50	799	0	129
50	826	0	129
50	965	0	130
50	1452	0	138
50	2122	0	140
50	2146	0	140
50	2632	0	141
50	3496	0	142
50	4044	0	142
50	4184	0	142
50	4424	0	142
50	4612	0	142
50	5796	0	142
51	80	0	52
51	160	0	80
51	272	0	112
51	312	0	115
51	432	0	121
51	450	0	121
51	505	0	121
51	539	0	123
51	543	0	123
51	876	0	130
51	882	0	130
51	941	0	130
51	1118	0	130
51	1438	0	138
51	1676	0	138
51	1744	0	138
51	1924	0	140
51	1946	0	140
51	2008	0	140
51	2116	0	140
51	2242	0	140
51	2252	0	140
51	2302	0	140
51	2362	0	140
51	2376	0	140
51	2590	0	140
51	2658	0	141
51	2722	0	141
51	2768	0	141
51	2830	0	141
51	3536	0	142
51	3548	0	142
51	3840	0	142
51	3988	0	142
51	4536	0	142
51	5436	0	142
51	5476	0	142
51	5488	0	142
51	5848	0	142
51	6008	0	142
51	6104	0	142
51	6604	0	142
51	6664	0	142
52	82	0	53
52	116	0	69
52	143	0	77
52	150	0	78
52	156	0	79
52	161	0	80
52	169	0	81
52	256	0	112
52	335	0	116
52	456	0	121
52	494	0	121
52	538	0	123
52	1072	0	130
52	1114	0	130
52	1332	0	138
52	1372	0	138
52	1466	0	138
52	1718	0	138
52	2088	0	140
52	2204	0	140
52	2256	0	140
52	2416	0	140
52	2432	0	140
52	3380	0	142
52	3472	0	142
52	3608	0	142
52	4112	0	142
52	4804	0	142
52	5256	0	142
52	5384	0	142
52	5464	0	142
52	5688	0	142
52	5840	0	142
52	6152	0	142
52	6788	0	142
53	83	0	54
53	86	0	55
53	92	0	58
53	162	0	80
53	183	0	85
53	334	0	116
53	379	0	117
53	438	0	121
53	546	0	123
53	831	0	129
53	848	0	129
53	968	0	130
53	1068	0	130
53	1104	0	130
53	1416	0	138
53	1504	0	138
53	1764	0	138
53	1788	0	138
53	1846	0	138
53	1850	0	138
53	2102	0	140
53	2172	0	140
53	2422	0	140
53	2494	0	140
53	2520	0	140
53	2872	0	141
53	3284	0	142
53	3796	0	142
53	3852	0	142
53	4016	0	142
53	4736	0	142
53	5076	0	142
53	5448	0	142
53	5568	0	142
53	5576	0	142
53	5756	0	142
53	6156	0	142
53	6188	0	142
53	6252	0	142
53	6312	0	142
54	84	0	55
54	131	0	72
54	289	0	114
54	337	0	116
54	346	0	116
54	381	0	117
54	383	0	117
54	598	0	123
54	910	0	130
54	936	0	130
54	1108	0	130
54	1362	0	138
54	1366	0	138
54	1440	0	138
54	1476	0	138
54	1580	0	138
54	1944	0	140
54	1960	0	140
54	2104	0	140
54	2262	0	140
54	2278	0	140
54	2384	0	140
54	2528	0	140
54	2556	0	140
54	2576	0	140
54	2636	0	141
54	2718	0	141
54	2860	0	141
54	2868	0	141
54	3156	0	142
54	4032	0	142
54	4580	0	142
54	4664	0	142
54	4904	0	142
54	5008	0	142
54	5084	0	142
54	5196	0	142
54	5320	0	142
54	5348	0	142
54	5408	0	142
54	5504	0	142
54	6280	0	142
54	6424	0	142
55	87	0	56
55	89	0	57
55	530	0	122
55	697	0	129
55	909	0	130
55	955	0	130
55	1166	0	130
55	1382	0	138
55	1430	0	138
55	1762	0	138
55	1776	0	138
55	1956	0	140
55	2084	0	140
55	2094	0	140
55	2174	0	140
55	2516	0	140
55	2668	0	141
55	2724	0	141
55	2786	0	141
55	4348	0	142
55	4392	0	142
55	4464	0	142
55	4796	0	142
55	4812	0	142
55	4908	0	142
55	4960	0	142
55	5952	0	142
55	6116	0	142
55	6244	0	142
56	88	0	57
56	145	0	77
56	255	0	112
56	945	0	130
56	1328	0	138
56	1664	0	138
56	1670	0	138
56	4528	0	142
56	4548	0	142
56	5264	0	142
56	5844	0	142
56	6024	0	142
56	6096	0	142
56	6328	0	142
56	6668	0	142
57	90	0	58
57	257	0	112
57	361	0	117
57	476	0	121
57	534	0	122
57	569	0	123
57	576	0	123
57	582	0	123
57	608	0	123
57	1136	0	130
57	1192	0	130
57	1288	0	130
57	1334	0	138
57	1460	0	138
57	1502	0	138
57	1698	0	138
57	1780	0	138
57	2400	0	140
57	2420	0	140
57	2440	0	140
57	2502	0	140
57	2570	0	140
57	2606	0	141
57	2650	0	141
57	2870	0	141
57	3308	0	142
57	3696	0	142
57	4088	0	142
57	4104	0	142
57	4228	0	142
57	4304	0	142
57	4720	0	142
57	5716	0	142
57	5740	0	142
57	6300	0	142
57	6616	0	142
57	6756	0	142
58	94	0	59
58	171	0	81
58	343	0	116
58	356	0	116
58	416	0	120
58	418	0	120
58	547	0	123
58	556	0	123
58	564	0	123
58	820	0	129
58	990	0	130
58	1200	0	130
58	1224	0	130
58	1620	0	138
58	1816	0	138
58	1852	0	138
58	1998	0	140
58	2372	0	140
58	2608	0	141
58	2686	0	141
58	2846	0	141
58	2876	0	141
58	3248	0	142
58	4028	0	142
58	4200	0	142
58	4316	0	142
58	4596	0	142
58	4608	0	142
58	4660	0	142
58	4732	0	142
58	5172	0	142
58	5216	0	142
58	5556	0	142
58	5800	0	142
58	6000	0	142
58	6260	0	142
58	6644	0	142
59	95	0	60
59	152	0	78
59	311	0	115
59	417	0	120
59	586	0	123
59	861	0	129
59	1084	0	130
59	1090	0	130
59	1178	0	130
59	1220	0	130
59	1596	0	138
59	1618	0	138
59	1834	0	138
59	1858	0	138
59	2118	0	140
59	2144	0	140
59	2566	0	140
59	2766	0	141
59	3760	0	142
59	3932	0	142
59	3992	0	142
59	4788	0	142
59	5088	0	142
59	5128	0	142
59	5344	0	142
59	5852	0	142
59	5904	0	142
60	96	0	61
60	266	0	112
60	298	0	114
60	348	0	116
60	453	0	121
60	479	0	121
60	616	0	123
60	948	0	130
60	1106	0	130
60	1116	0	130
60	1134	0	130
60	1138	0	130
60	1146	0	130
60	1374	0	138
60	1616	0	138
60	1806	0	138
60	2002	0	140
60	2134	0	140
60	2260	0	140
60	2402	0	140
60	2648	0	141
60	2676	0	141
60	2728	0	141
60	3080	0	141
60	3240	0	142
60	3264	0	142
60	4012	0	142
60	4576	0	142
60	5308	0	142
60	6600	0	142
60	6612	0	142
60	6836	0	142
61	97	0	62
61	966	0	130
61	1408	0	138
61	1434	0	138
61	1478	0	138
61	1750	0	138
61	1756	0	138
61	2404	0	140
61	2626	0	141
61	2692	0	141
61	3520	0	142
61	3564	0	142
61	3580	0	142
61	3804	0	142
61	4264	0	142
61	4448	0	142
61	4472	0	142
61	4628	0	142
61	4776	0	142
61	5512	0	142
61	5532	0	142
61	6376	0	142
61	6628	0	142
61	6768	0	142
61	6832	0	142
62	98	0	63
62	380	0	117
62	421	0	120
62	590	0	123
62	901	0	130
62	950	0	130
62	1076	0	130
62	1082	0	130
62	1216	0	130
62	1292	0	130
62	1560	0	138
62	1802	0	138
62	1994	0	140
62	2076	0	140
62	2292	0	140
62	2360	0	140
62	2600	0	140
62	2694	0	141
62	2732	0	141
62	2780	0	141
62	2824	0	141
62	3008	0	141
62	3072	0	141
62	3832	0	142
62	3868	0	142
62	4052	0	142
62	4120	0	142
62	4476	0	142
62	5100	0	142
62	5424	0	142
62	5924	0	142
62	6112	0	142
62	6232	0	142
62	6716	0	142
63	100	0	64
63	159	0	80
63	247	0	109
63	372	0	117
63	435	0	121
63	550	0	123
63	580	0	123
63	806	0	129
63	989	0	130
63	1074	0	130
63	1204	0	130
63	1658	0	138
63	1680	0	138
63	1740	0	138
63	1992	0	140
63	2344	0	140
63	2380	0	140
63	2398	0	140
63	2594	0	140
63	2840	0	141
63	3236	0	142
63	3704	0	142
63	4056	0	142
63	5040	0	142
63	5240	0	142
63	5412	0	142
63	6288	0	142
63	6404	0	142
64	106	0	65
64	114	0	69
64	305	0	114
64	355	0	116
64	436	0	121
64	499	0	121
64	853	0	129
64	937	0	130
64	986	0	130
64	1346	0	138
64	1972	0	140
64	2392	0	140
64	2592	0	140
64	2826	0	141
64	3232	0	142
64	3288	0	142
64	3348	0	142
64	3684	0	142
64	3820	0	142
64	5028	0	142
64	5064	0	142
64	5112	0	142
64	5368	0	142
64	5940	0	142
64	6004	0	142
64	6204	0	142
64	6692	0	142
65	107	0	66
65	128	0	72
65	303	0	114
65	306	0	114
65	510	0	121
65	512	0	121
65	553	0	123
65	615	0	123
65	689	0	129
65	824	0	129
65	841	0	129
65	912	0	130
65	958	0	130
65	1222	0	130
65	1428	0	138
65	1524	0	138
65	1550	0	138
65	1706	0	138
65	1766	0	138
65	1770	0	138
65	1860	0	138
65	1934	0	140
65	2286	0	140
65	2510	0	140
65	2748	0	141
65	2756	0	141
65	2808	0	141
65	3524	0	142
65	3808	0	142
65	3844	0	142
65	4072	0	142
65	4980	0	142
65	5588	0	142
65	5960	0	142
65	6764	0	142
65	6856	0	145
66	111	0	67
66	357	0	116
66	640	0	125
66	650	0	126
66	727	0	129
66	1038	0	130
66	1232	0	130
66	1624	0	138
66	1826	0	138
66	2150	0	140
66	2332	0	140
66	2336	0	140
66	2878	0	141
66	2910	0	141
66	2920	0	141
66	6500	0	142
67	112	0	68
67	205	0	93
67	358	0	116
67	403	0	118
67	658	0	127
67	661	0	127
67	721	0	129
67	732	0	129
67	1030	0	130
67	1034	0	130
67	2064	0	140
67	3512	0	142
67	6508	0	142
68	113	0	69
68	245	0	109
68	344	0	116
68	360	0	117
68	378	0	117
68	441	0	121
68	701	0	129
68	731	0	129
68	805	0	129
68	960	0	130
68	1258	0	130
68	1496	0	138
68	1500	0	138
68	1582	0	138
68	1790	0	138
68	1798	0	138
68	1828	0	138
68	2186	0	140
68	2322	0	140
68	2486	0	140
68	2490	0	140
68	2682	0	141
68	3332	0	142
68	5048	0	142
68	6184	0	142
68	6752	0	142
69	121	0	70
69	434	0	121
69	514	0	121
69	540	0	123
69	552	0	123
69	559	0	123
69	585	0	123
69	607	0	123
69	814	0	129
69	983	0	130
69	1174	0	130
69	1198	0	130
69	1364	0	138
69	1378	0	138
69	1420	0	138
69	1480	0	138
69	1556	0	138
69	1574	0	138
69	1800	0	138
69	2114	0	140
69	2168	0	140
69	2458	0	140
69	2536	0	140
69	2610	0	141
69	2762	0	141
69	2776	0	141
69	4020	0	142
69	4232	0	142
69	4396	0	142
69	4840	0	142
69	4956	0	142
69	5516	0	142
69	5660	0	142
69	5808	0	142
69	6180	0	142
70	122	0	71
70	180	0	84
70	193	0	85
70	387	0	118
70	451	0	121
70	459	0	121
70	497	0	121
70	504	0	121
70	509	0	121
70	798	0	129
70	801	0	129
70	1152	0	130
70	1272	0	130
70	1412	0	138
70	1734	0	138
70	1968	0	140
70	2548	0	140
70	2634	0	141
70	2744	0	141
70	2792	0	141
70	3064	0	141
70	3224	0	142
70	3556	0	142
70	4432	0	142
70	4784	0	142
70	4896	0	142
70	5224	0	142
70	5356	0	142
70	5892	0	142
70	6440	0	142
71	126	0	72
71	265	0	112
71	351	0	116
71	471	0	121
71	744	0	129
71	812	0	129
71	843	0	129
71	885	0	130
71	917	0	130
71	940	0	130
71	959	0	130
71	988	0	130
71	1190	0	130
71	1262	0	130
71	1396	0	138
71	1932	0	140
71	1974	0	140
71	2198	0	140
71	2388	0	140
71	2394	0	140
71	2554	0	140
71	2758	0	141
71	3044	0	141
71	3372	0	142
71	3708	0	142
71	3716	0	142
71	3836	0	142
71	4572	0	142
71	4588	0	142
71	4740	0	142
71	5044	0	142
71	5284	0	142
71	5544	0	142
71	5648	0	142
71	6220	0	142
71	6412	0	142
72	134	0	73
72	274	0	112
72	278	0	112
72	339	0	116
72	382	0	117
72	397	0	118
72	492	0	121
72	612	0	123
72	614	0	123
72	748	0	129
72	849	0	129
72	907	0	130
72	911	0	130
72	971	0	130
72	1168	0	130
72	1400	0	138
72	1608	0	138
72	1794	0	138
72	1988	0	140
72	2006	0	140
72	2176	0	140
72	2828	0	141
72	3032	0	141
72	3108	0	141
72	3144	0	141
72	3664	0	142
72	3732	0	142
72	3848	0	142
72	4160	0	142
72	4492	0	142
72	4756	0	142
72	4916	0	142
72	4924	0	142
72	5428	0	142
72	5608	0	142
72	5652	0	142
72	5704	0	142
72	5812	0	142
72	6308	0	142
73	135	0	74
73	277	0	112
73	366	0	117
73	449	0	121
73	969	0	130
73	1164	0	130
73	1320	0	138
73	1376	0	138
73	1568	0	138
73	1708	0	138
73	1714	0	138
73	2424	0	140
73	2500	0	140
73	2662	0	141
73	2712	0	141
73	2836	0	141
73	3128	0	141
73	3140	0	141
73	3480	0	142
73	3984	0	142
73	5584	0	142
73	5696	0	142
73	5724	0	142
73	5832	0	142
73	6680	0	142
73	6724	0	142
74	136	0	75
74	153	0	78
74	175	0	83
74	286	0	114
74	317	0	115
74	349	0	116
74	367	0	117
74	394	0	118
74	420	0	120
74	482	0	121
74	507	0	121
74	750	0	129
74	795	0	129
74	807	0	129
74	840	0	129
74	913	0	130
74	927	0	130
74	938	0	130
74	975	0	130
74	984	0	130
74	1142	0	130
74	1188	0	130
74	1206	0	130
74	1540	0	138
74	1570	0	138
74	1702	0	138
74	2170	0	140
74	2444	0	140
74	2506	0	140
74	2572	0	140
74	2612	0	141
74	2628	0	141
74	2688	0	141
74	2740	0	141
74	2800	0	141
74	3364	0	142
74	3540	0	142
74	3828	0	142
74	3936	0	142
74	4068	0	142
74	4292	0	142
74	5220	0	142
74	5248	0	142
74	5964	0	142
74	6212	0	142
74	6392	0	142
74	6732	0	142
75	141	0	76
75	279	0	112
75	429	0	120
75	601	0	123
75	694	0	129
75	868	0	129
75	943	0	130
75	2312	0	140
75	2430	0	140
75	2700	0	141
75	2832	0	141
75	4364	0	142
75	4488	0	142
75	4532	0	142
75	4920	0	142
75	5388	0	142
75	5980	0	142
75	6016	0	142
75	6036	0	142
75	6544	0	142
76	142	0	77
76	613	0	123
76	1322	0	138
76	1566	0	138
76	1712	0	138
76	1916	0	140
76	1922	0	140
76	2244	0	140
76	2316	0	140
76	2426	0	140
76	2818	0	141
76	3028	0	141
76	3136	0	141
76	3660	0	142
76	4800	0	142
76	6164	0	142
76	6676	0	142
77	146	0	78
77	427	0	120
77	444	0	121
77	693	0	129
77	874	0	130
77	1326	0	138
77	1468	0	138
77	2212	0	140
77	2224	0	140
77	2246	0	140
77	2462	0	140
77	2814	0	141
77	3132	0	141
77	3652	0	142
77	4352	0	142
77	4368	0	142
77	4376	0	142
77	5432	0	142
77	5680	0	142
77	5824	0	142
77	6028	0	142
78	155	0	79
78	252	0	110
78	447	0	121
78	491	0	121
78	906	0	130
78	2220	0	140
78	2472	0	140
78	3640	0	142
78	6012	0	142
78	6100	0	142
78	6136	0	142
79	158	0	80
79	439	0	121
79	519	0	121
79	526	0	122
79	622	0	124
79	699	0	129
79	897	0	130
79	1066	0	130
79	1128	0	130
79	1202	0	130
79	1506	0	138
79	2492	0	140
79	2982	0	141
79	3692	0	142
79	3700	0	142
79	4604	0	142
79	5056	0	142
79	5328	0	142
79	5748	0	142
80	166	0	81
80	327	0	116
80	384	0	117
80	392	0	118
80	548	0	123
80	597	0	123
80	625	0	124
80	627	0	124
80	746	0	129
80	794	0	129
80	808	0	129
80	819	0	129
80	922	0	130
80	1278	0	130
80	1612	0	138
80	1748	0	138
80	1838	0	138
80	1928	0	140
80	2138	0	140
80	2164	0	140
80	2546	0	140
80	2560	0	140
80	2596	0	140
80	2618	0	141
80	3172	0	142
80	3452	0	142
80	3528	0	142
80	4140	0	142
80	4148	0	142
80	4236	0	142
80	4388	0	142
80	4520	0	142
80	4624	0	142
80	4816	0	142
80	5228	0	142
80	5496	0	142
80	5656	0	142
80	5776	0	142
80	6200	0	142
81	172	0	82
81	197	0	87
81	199	0	88
81	992	0	130
81	1818	0	138
81	2926	0	141
81	2960	0	141
81	3504	0	142
81	4192	0	142
81	4320	0	142
81	4332	0	142
81	4648	0	142
81	4884	0	142
82	173	0	83
82	244	0	109
82	375	0	117
82	630	0	124
82	660	0	127
82	724	0	129
82	728	0	129
82	964	0	130
82	1040	0	130
82	1230	0	130
82	2070	0	140
82	2148	0	140
82	2898	0	141
82	3000	0	141
82	3492	0	142
82	4336	0	142
82	4888	0	142
82	6360	0	142
83	177	0	84
83	328	0	116
83	374	0	117
83	404	0	118
83	560	0	123
83	738	0	129
83	811	0	129
83	825	0	129
83	847	0	129
83	920	0	130
83	1208	0	130
83	1218	0	130
83	1490	0	138
83	1510	0	138
83	1832	0	138
83	1842	0	138
83	2162	0	140
83	2382	0	140
83	2406	0	140
83	2496	0	140
83	2524	0	140
83	2614	0	141
83	3088	0	141
83	3204	0	142
83	3672	0	142
83	3960	0	142
83	4024	0	142
83	4224	0	142
83	4256	0	142
83	4428	0	142
83	4824	0	142
83	5184	0	142
83	5536	0	142
83	5792	0	142
83	6536	0	142
84	181	0	85
84	264	0	112
84	324	0	116
84	329	0	116
84	465	0	121
84	481	0	121
84	865	0	129
84	931	0	130
84	991	0	130
84	1276	0	130
84	1280	0	130
84	1426	0	138
84	1442	0	138
84	1454	0	138
84	1542	0	138
84	1996	0	140
84	2128	0	140
84	2370	0	140
84	3004	0	141
84	3040	0	141
84	3296	0	142
84	3592	0	142
84	4048	0	142
84	4172	0	142
84	4676	0	142
84	4900	0	142
84	5288	0	142
84	5508	0	142
84	5520	0	142
84	6452	0	142
84	6816	0	142
84	6844	0	143
85	195	0	86
85	290	0	114
85	330	0	116
85	1180	0	130
85	1530	0	138
85	1546	0	138
85	1962	0	140
85	1982	0	140
85	2532	0	140
85	2742	0	141
85	2796	0	141
85	3864	0	142
85	4444	0	142
85	4560	0	142
85	4620	0	142
85	4672	0	142
85	4696	0	142
85	6356	0	142
85	6368	0	142
85	6580	0	142
86	196	0	87
86	400	0	118
86	858	0	129
86	1450	0	138
86	3500	0	142
86	3588	0	142
86	4180	0	142
86	4420	0	142
87	198	0	88
87	407	0	119
87	440	0	121
87	655	0	127
87	710	0	129
87	713	0	129
87	722	0	129
87	734	0	129
87	1054	0	130
87	1256	0	130
87	1584	0	138
87	1630	0	138
87	1646	0	138
87	2068	0	140
87	2894	0	141
87	2972	0	141
87	2976	0	141
87	2984	0	141
87	4860	0	142
87	5052	0	142
88	200	0	89
88	222	0	103
88	376	0	117
88	402	0	118
88	634	0	124
88	995	0	130
88	1026	0	130
88	1626	0	138
88	1820	0	138
88	1824	0	138
88	2032	0	140
88	2326	0	140
88	2330	0	140
88	3508	0	142
88	4216	0	142
88	4328	0	142
88	6496	0	142
89	201	0	90
89	401	0	118
89	1590	0	138
89	2962	0	141
89	2994	0	141
89	4324	0	142
90	202	0	91
90	1588	0	138
91	203	0	92
91	664	0	127
91	729	0	129
91	736	0	129
91	1020	0	130
91	1586	0	138
91	2034	0	140
91	2328	0	140
91	2922	0	141
91	2992	0	141
91	2996	0	141
91	4880	0	142
92	204	0	93
92	220	0	102
92	243	0	109
92	414	0	120
92	523	0	121
92	641	0	125
92	994	0	130
92	1002	0	130
92	1010	0	130
92	1022	0	130
92	1254	0	130
92	2036	0	140
92	2058	0	140
92	2882	0	141
92	2948	0	141
93	206	0	94
93	215	0	100
93	236	0	107
93	241	0	108
93	638	0	125
93	653	0	127
93	708	0	129
93	712	0	129
93	714	0	129
93	720	0	129
93	1004	0	130
93	1032	0	130
93	1036	0	130
93	1650	0	138
93	2040	0	140
93	2152	0	140
93	2334	0	140
93	2892	0	141
93	2914	0	141
93	2918	0	141
93	2940	0	141
93	4208	0	142
94	207	0	95
94	210	0	97
94	223	0	103
94	412	0	120
94	636	0	125
94	647	0	126
94	1024	0	130
94	1052	0	130
94	2046	0	140
94	2056	0	140
94	2942	0	141
94	2946	0	141
94	4212	0	142
95	208	0	96
95	214	0	100
95	218	0	101
95	230	0	105
95	413	0	120
95	415	0	120
95	666	0	127
95	711	0	129
95	725	0	129
95	1014	0	130
95	1228	0	130
95	1238	0	130
95	2924	0	141
95	3432	0	142
95	4656	0	142
95	6492	0	142
96	209	0	97
96	226	0	104
96	233	0	106
96	409	0	120
96	411	0	120
96	672	0	128
96	676	0	129
96	718	0	129
96	1044	0	130
96	1058	0	130
96	1634	0	138
96	2066	0	140
96	2886	0	141
96	2952	0	141
96	2970	0	141
96	4868	0	142
96	6484	0	142
96	6528	0	142
97	211	0	98
97	225	0	104
97	669	0	127
97	671	0	128
98	212	0	99
98	228	0	105
98	234	0	106
98	663	0	127
98	667	0	127
98	678	0	129
98	706	0	129
98	1000	0	130
98	1008	0	130
98	1246	0	130
98	1250	0	130
98	2888	0	141
98	2954	0	141
99	213	0	100
99	217	0	101
99	231	0	105
99	239	0	108
99	649	0	126
99	657	0	127
99	677	0	129
99	680	0	129
99	723	0	129
99	730	0	129
99	737	0	129
99	999	0	130
99	1016	0	130
99	2072	0	140
99	3436	0	142
99	6488	0	142
100	216	0	101
100	240	0	108
100	629	0	124
100	656	0	127
100	733	0	129
100	735	0	129
100	997	0	130
100	1234	0	130
100	1592	0	138
100	2154	0	140
100	2160	0	140
100	2930	0	141
100	2964	0	141
100	4196	0	142
101	219	0	102
101	654	0	127
101	707	0	129
101	1248	0	130
101	2906	0	141
101	2990	0	141
102	221	0	103
102	229	0	105
102	237	0	107
102	639	0	125
102	659	0	127
102	717	0	129
102	993	0	130
102	1236	0	130
102	1252	0	130
102	1628	0	138
102	2026	0	140
102	2030	0	140
102	2156	0	140
102	2938	0	141
102	2958	0	141
102	2966	0	141
103	224	0	104
103	1006	0	130
103	1048	0	130
103	1242	0	130
103	2042	0	140
104	227	0	105
104	406	0	119
104	521	0	121
104	642	0	125
104	648	0	126
104	652	0	127
104	888	0	130
104	1018	0	130
104	1050	0	130
104	1632	0	138
104	2904	0	141
104	2978	0	141
104	4876	0	142
104	6472	0	142
105	232	0	106
105	525	0	122
105	709	0	129
105	719	0	129
105	889	0	130
105	892	0	130
105	1056	0	130
105	1060	0	130
105	1064	0	130
105	4872	0	142
105	6516	0	142
106	235	0	107
106	410	0	120
106	645	0	126
106	705	0	129
106	1046	0	130
106	1244	0	130
106	2044	0	140
106	6480	0	142
107	238	0	108
107	637	0	125
107	703	0	129
107	963	0	130
107	1636	0	138
107	1644	0	138
107	1652	0	138
107	2022	0	140
107	2900	0	141
107	2908	0	141
107	2934	0	141
107	2988	0	141
107	2998	0	141
108	242	0	109
108	377	0	117
108	522	0	121
108	633	0	124
108	998	0	130
108	1028	0	130
108	1622	0	138
108	1648	0	138
108	2060	0	140
108	2324	0	140
108	2684	0	141
108	2928	0	141
108	2932	0	141
108	2968	0	141
108	3428	0	142
108	4204	0	142
108	4220	0	142
108	4652	0	142
109	249	0	110
109	262	0	112
109	501	0	121
109	511	0	121
109	513	0	121
109	583	0	123
109	1696	0	138
109	1704	0	138
109	1742	0	138
109	1746	0	138
109	1796	0	138
109	2018	0	140
109	2098	0	140
109	2508	0	140
109	2552	0	140
109	2864	0	141
109	3084	0	141
109	3600	0	142
109	3872	0	142
109	4344	0	142
109	4712	0	142
109	4744	0	142
109	4852	0	142
109	4968	0	142
109	5000	0	142
109	5012	0	142
109	5036	0	142
109	5072	0	142
109	5080	0	142
109	5760	0	142
109	5816	0	142
109	6552	0	142
110	253	0	111
110	280	0	112
110	283	0	113
110	428	0	120
110	2232	0	140
110	2478	0	140
110	5732	0	142
110	6132	0	142
110	6144	0	142
111	254	0	112
111	281	0	112
111	448	0	121
111	692	0	129
111	869	0	129
111	871	0	129
111	1324	0	138
111	2222	0	140
111	2310	0	140
111	2354	0	140
111	3648	0	142
111	4932	0	142
111	5676	0	142
112	282	0	113
112	870	0	129
112	944	0	130
112	946	0	130
112	1914	0	140
112	1952	0	140
112	6140	0	142
113	284	0	114
113	536	0	122
113	822	0	129
113	873	0	130
113	905	0	130
113	954	0	130
113	1666	0	138
113	1672	0	138
113	1920	0	140
113	2010	0	140
113	2248	0	140
113	2304	0	140
113	2356	0	140
113	2804	0	141
113	3096	0	141
113	3656	0	142
113	3976	0	142
113	4484	0	142
113	5836	0	142
113	6340	0	142
113	6740	0	142
114	307	0	115
114	352	0	116
114	473	0	121
114	503	0	121
114	554	0	123
114	566	0	123
114	1418	0	138
114	1538	0	138
114	1552	0	138
114	1736	0	138
114	1830	0	138
114	2616	0	141
114	2672	0	141
114	2678	0	141
114	2736	0	141
114	3192	0	142
114	3328	0	142
114	3368	0	142
114	3860	0	142
114	3996	0	142
114	4692	0	142
114	4772	0	142
114	4820	0	142
114	5016	0	142
114	5032	0	142
114	5068	0	142
114	5768	0	142
114	5900	0	142
114	6268	0	142
114	6396	0	142
114	6436	0	142
115	319	0	116
115	426	0	120
115	443	0	121
115	695	0	129
115	834	0	129
115	836	0	129
115	947	0	130
115	952	0	130
115	1330	0	138
115	1562	0	138
115	2014	0	140
115	2234	0	140
115	2240	0	140
115	2258	0	140
115	2308	0	140
115	2358	0	140
115	2470	0	140
115	2772	0	141
115	3120	0	141
115	3468	0	142
115	4356	0	142
115	4380	0	142
115	4480	0	142
115	5272	0	142
115	5460	0	142
115	5468	0	142
115	5988	0	142
115	6148	0	142
116	359	0	117
116	632	0	124
116	702	0	129
116	716	0	129
116	726	0	129
116	961	0	130
116	1638	0	138
116	2028	0	140
116	2038	0	140
116	2338	0	140
116	2980	0	141
116	6524	0	142
117	385	0	118
117	483	0	121
117	793	0	129
117	862	0	129
117	1544	0	138
117	1856	0	138
117	2126	0	140
117	2858	0	141
117	3896	0	142
117	4280	0	142
117	4288	0	142
117	5132	0	142
117	5292	0	142
117	6428	0	142
118	405	0	119
118	631	0	124
118	996	0	130
118	1042	0	130
118	1226	0	130
118	2024	0	140
118	2158	0	140
118	2896	0	141
118	6532	0	142
119	408	0	120
119	520	0	121
119	673	0	128
119	715	0	129
119	887	0	130
119	890	0	130
119	962	0	130
119	1640	0	138
119	1654	0	138
119	2340	0	140
119	2974	0	141
119	2986	0	141
119	6520	0	142
120	431	0	121
120	477	0	121
120	495	0	121
120	690	0	129
120	815	0	129
120	916	0	130
120	1336	0	138
120	1474	0	138
120	1526	0	138
120	1760	0	138
120	1978	0	140
120	2080	0	140
120	2184	0	140
120	2270	0	140
120	2660	0	141
120	2698	0	141
120	2702	0	141
120	2774	0	141
120	2806	0	141
120	3176	0	142
120	3396	0	142
120	3616	0	142
120	3688	0	142
120	4084	0	142
120	4164	0	142
120	5244	0	142
120	5580	0	142
120	6108	0	142
120	6172	0	142
120	6224	0	142
120	6760	0	142
121	524	0	122
121	643	0	125
121	675	0	129
121	893	0	130
121	1012	0	130
121	1062	0	130
121	1240	0	130
121	2050	0	140
121	2054	0	140
121	2884	0	141
121	2950	0	141
122	537	0	123
122	970	0	130
122	1710	0	138
122	2218	0	140
122	2230	0	140
122	2238	0	140
122	2710	0	141
122	2834	0	141
122	3020	0	141
122	3476	0	142
122	5260	0	142
122	5268	0	142
122	6020	0	142
122	6092	0	142
123	620	0	124
123	973	0	130
123	1306	0	134
123	1864	0	138
123	5700	0	142
123	6040	0	142
123	6048	0	142
124	635	0	125
124	646	0	126
124	1822	0	138
124	2944	0	141
125	644	0	126
125	665	0	127
125	668	0	127
125	704	0	129
125	2890	0	141
125	2902	0	141
125	2936	0	141
125	2956	0	141
125	4864	0	142
126	651	0	127
126	662	0	127
126	679	0	129
126	1642	0	138
126	2048	0	140
126	2880	0	141
126	2912	0	141
126	2916	0	141
126	6476	0	142
126	6512	0	142
127	670	0	128
128	674	0	129
128	743	0	129
128	886	0	130
128	891	0	130
128	894	0	130
128	1344	0	138
128	1656	0	138
128	2020	0	140
128	2052	0	140
128	2342	0	140
128	4856	0	142
128	4972	0	142
128	6468	0	142
129	872	0	130
129	953	0	130
129	1564	0	138
129	2012	0	140
129	2708	0	141
129	4360	0	142
130	1866	0	139
130	1876	0	140
130	1888	0	140
130	6052	0	142
131	1868	0	140
131	1872	0	140
131	1880	0	140
131	1904	0	140
132	1870	0	140
132	1882	0	140
132	1892	0	140
132	1896	0	140
132	6060	0	142
133	1874	0	140
133	1884	0	140
133	1890	0	140
133	1898	0	140
133	6056	0	142
133	6064	0	142
133	6080	0	142
134	1878	0	140
134	1886	0	140
134	1894	0	140
135	1900	0	140
135	1910	0	140
135	6068	0	142
135	6076	0	142
135	6084	0	142
136	1902	0	140
136	1906	0	140
137	1908	0	140
137	6072	0	142
138	1912	0	140
138	2476	0	140
138	6088	0	142
139	1950	0	140
139	2214	0	140
139	2226	0	140
139	2474	0	140
139	3100	0	141
139	3116	0	141
139	5828	0	142
140	6044	0	142
141	6504	0	142

