version 3
run General-390-20250904-14:13:23-15856
attr configname General
attr datetime 20250904-14:13:23
attr datetimef 20250904-141323
attr experiment General
attr inifile omnetpp.ini
attr iterationvars ""
attr iterationvarsd ""
attr iterationvarsf ""
attr measurement ""
attr network TaxiNetwork
attr processid 15856
attr repetition 390
attr replication #390
attr resultdir results
attr runnumber 390
attr seedset 390
config network TaxiNetwork
config seed-set 390
config num-rngs 1
config sim-time-limit 10s
config repeat 500
config *.numWalkers 1
config *.enableDuplication true
config *.rc 700
config **.node[0].xCor 2933
config **.node[0].yCor 2747
config **.node[1].xCor 2919
config **.node[1].yCor 2817
config **.node[2].xCor 2910
config **.node[2].yCor 2861
config **.node[3].xCor 2429
config **.node[3].yCor 2851
config **.node[4].xCor 2908
config **.node[4].yCor 2714
config **.node[5].xCor 2606
config **.node[5].yCor 2722
config **.node[6].xCor 2575
config **.node[6].yCor 2753
config **.node[7].xCor 2654
config **.node[7].yCor 2513
config **.node[8].xCor 2773
config **.node[8].yCor 2580
config **.node[9].xCor 3043
config **.node[9].yCor 2780
config **.node[10].xCor 3020
config **.node[10].yCor 2813
config **.node[11].xCor 2599
config **.node[11].yCor 2300
config **.node[12].xCor 2917
config **.node[12].yCor 2698
config **.node[13].xCor 2625
config **.node[13].yCor 2641
config **.node[14].xCor 2604
config **.node[14].yCor 2790
config **.node[15].xCor 2786
config **.node[15].yCor 3082
config **.node[16].xCor 2603
config **.node[16].yCor 2802
config **.node[17].xCor 2637
config **.node[17].yCor 2869
config **.node[18].xCor 2675
config **.node[18].yCor 2955
config **.node[19].xCor 2845
config **.node[19].yCor 2937
config **.node[20].xCor 2860
config **.node[20].yCor 2888
config **.node[21].xCor 2843
config **.node[21].yCor 4158
config **.node[22].xCor 2852
config **.node[22].yCor 4017
config **.node[23].xCor 2892
config **.node[23].yCor 4961
config **.node[24].xCor 2313
config **.node[24].yCor 3993
config **.node[25].xCor 2891
config **.node[25].yCor 4959
config **.node[26].xCor 2370
config **.node[26].yCor 4050
config **.node[27].xCor 2788
config **.node[27].yCor 3958
config **.node[28].xCor 2819
config **.node[28].yCor 4428
config **.node[29].xCor 2790
config **.node[29].yCor 3761
config **.node[30].xCor 2809
config **.node[30].yCor 2908
config **.node[31].xCor 2919
config **.node[31].yCor 3575
config **.node[32].xCor 2946
config **.node[32].yCor 3466
config **.node[33].xCor 2911
config **.node[33].yCor 3453
config **.node[34].xCor 2370
config **.node[34].yCor 3656
config **.node[35].xCor 2438
config **.node[35].yCor 3738
config **.node[36].xCor 2737
config **.node[36].yCor 3570
config **.node[37].xCor 2921
config **.node[37].yCor 3698
config **.node[38].xCor 2907
config **.node[38].yCor 5197
config **.node[39].xCor 2860
config **.node[39].yCor 3852
config **.node[40].xCor 2927
config **.node[40].yCor 3684
config **.node[41].xCor 3023
config **.node[41].yCor 5313
config **.node[42].xCor 3220
config **.node[42].yCor 5811
config **.node[43].xCor 3432
config **.node[43].yCor 5715
config **.node[44].xCor 2754
config **.node[44].yCor 2463
config **.node[45].xCor 2646
config **.node[45].yCor 2673
config **.node[46].xCor 3051
config **.node[46].yCor 2792
config **.node[47].xCor 1666
config **.node[47].yCor 3697
config **.node[48].xCor 1662
config **.node[48].yCor 3694
config **.node[49].xCor 1664
config **.node[49].yCor 3667
config **.node[50].xCor 1660
config **.node[50].yCor 3664
config **.node[51].xCor 1710
config **.node[51].yCor 3573
config **.node[52].xCor 2082
config **.node[52].yCor 2650
config **.node[53].xCor 2086
config **.node[53].yCor 2657
config **.node[54].xCor 2257
config **.node[54].yCor 3232
config **.node[55].xCor 2258
config **.node[55].yCor 3225
config **.node[56].xCor 1926
config **.node[56].yCor 2570
config **.node[57].xCor 1926
config **.node[57].yCor 2576
config **.node[58].xCor 2104
config **.node[58].yCor 1758
config **.node[59].xCor 1957
config **.node[59].yCor 1826
config **.node[60].xCor 3473
config **.node[60].yCor 1523
config **.node[61].xCor 3335
config **.node[61].yCor 1726
config **.node[62].xCor 3478
config **.node[62].yCor 1517
config **.node[63].xCor 3386
config **.node[63].yCor 2119
config **.node[64].xCor 3474
config **.node[64].yCor 1762
config **.node[65].xCor 3797
config **.node[65].yCor 2099
config **.node[66].xCor 3642
config **.node[66].yCor 2136
config **.node[67].xCor 3481
config **.node[67].yCor 2334
config **.node[68].xCor 3088
config **.node[68].yCor 1505
config **.node[69].xCor 3037
config **.node[69].yCor 1693
config **.node[70].xCor 3026
config **.node[70].yCor 1700
config **.node[71].xCor 3019
config **.node[71].yCor 669
config **.node[72].xCor 3513
config **.node[72].yCor 1358
config **.node[73].xCor 3545
config **.node[73].yCor 1230
config **.node[74].xCor 4228
config **.node[74].yCor 4220
config **.node[75].xCor 3379
config **.node[75].yCor 1207
config **.node[76].xCor 3596
config **.node[76].yCor 963
config **.node[77].xCor 3637
config **.node[77].yCor 1188
config **.node[78].xCor 3759
config **.node[78].yCor 1030
config **.node[79].xCor 2918
config **.node[79].yCor 1455
config **.node[80].xCor 2711
config **.node[80].yCor 1297
config **.node[81].xCor 439
config **.node[81].yCor 1623
config **.node[82].xCor 2857
config **.node[82].yCor 3581
config **.node[83].xCor 2858
config **.node[83].yCor 3584
config **.node[84].xCor 2999
config **.node[84].yCor 2636
config **.node[85].xCor 2905
config **.node[85].yCor 2778
config **.node[86].xCor 2653
config **.node[86].yCor 2845
config **.node[87].xCor 2864
config **.node[87].yCor 2836
config **.node[88].xCor 2426
config **.node[88].yCor 2892
config **.node[89].xCor 2964
config **.node[89].yCor 2804
config **.node[90].xCor 2586
config **.node[90].yCor 3135
config **.node[91].xCor 2864
config **.node[91].yCor 2980
config **.node[92].xCor 2527
config **.node[92].yCor 3219
config **.node[93].xCor 2863
config **.node[93].yCor 3142
config **.node[94].xCor 2485
config **.node[94].yCor 3269
config **.node[95].xCor 2653
config **.node[95].yCor 1065
config **.node[96].xCor 4062
config **.node[96].yCor 400
config **.node[97].xCor 5762
config **.node[97].yCor 3023
config **.node[98].xCor 1414
config **.node[98].yCor 3461
config **.node[99].xCor 2911
config **.node[99].yCor 1737
config **.node[100].xCor 2595
config **.node[100].yCor 2299
config **.node[101].xCor 2702
config **.node[101].yCor 3419
config **.node[102].xCor 2813
config **.node[102].yCor 3307
config **.node[103].xCor 2638
config **.node[103].yCor 2258
config **.node[104].xCor 2590
config **.node[104].yCor 3125
config **.node[105].xCor 1856
config **.node[105].yCor 2990
config **.node[106].xCor 1894
config **.node[106].yCor 2239
config **.node[107].xCor 383
config **.node[107].yCor 1251
config **.node[108].xCor 3447
config **.node[108].yCor 5489
config **.node[109].xCor 3450
config **.node[109].yCor 5697
config **.node[110].xCor 2719
config **.node[110].yCor 1920
config **.node[111].xCor 2085
config **.node[111].yCor 2389
config **.node[112].xCor 1910
config **.node[112].yCor 2548
config **.node[113].xCor 2069
config **.node[113].yCor 2050
config **.node[114].xCor 2184
config **.node[114].yCor 2209
config **.node[115].xCor 2278
config **.node[115].yCor 2390
config **.node[116].xCor 2249
config **.node[116].yCor 2299
config **.node[117].xCor 2356
config **.node[117].yCor 2303
config **.node[118].xCor 2192
config **.node[118].yCor 2475
config **.node[119].xCor 1720
config **.node[119].yCor 2911
config **.node[120].xCor 2400
config **.node[120].yCor 2887
config **.node[121].xCor 3344
config **.node[121].yCor 1890
config **.node[122].xCor 3136
config **.node[122].yCor 2418
config **.node[123].xCor 3243
config **.node[123].yCor 2525
config **.node[124].xCor 2396
config **.node[124].yCor 1267
config **.node[125].xCor 467
config **.node[125].yCor 1875
config **.node[126].xCor 3506
config **.node[126].yCor 1221
config **.node[127].xCor 1034
config **.node[127].yCor 1474
config **.node[128].xCor 2908
config **.node[128].yCor 1784
config **.node[129].xCor 2876
config **.node[129].yCor 1761
config **.node[130].xCor 2849
config **.node[130].yCor 1795
config **.node[131].xCor 3029
config **.node[131].yCor 1859
config **.node[132].xCor 2924
config **.node[132].yCor 1848
config **.node[133].xCor 3493
config **.node[133].yCor 1559
config **.node[134].xCor 2760
config **.node[134].yCor 1761
config **.node[135].xCor 1644
config **.node[135].yCor 3755
config **.node[136].xCor 1463
config **.node[136].yCor 3432
config **.node[137].xCor 2595
config **.node[137].yCor 2849
config **.node[138].xCor 2581
config **.node[138].yCor 2867
config **.node[139].xCor 2524
config **.node[139].yCor 2911
config **.node[140].xCor 2570
config **.node[140].yCor 2924
config **.node[141].xCor 2676
config **.node[141].yCor 2890
config **.node[142].xCor 2666
config **.node[142].yCor 2876
config **.node[143].xCor 3735
config **.node[143].yCor 1726
config **.node[144].xCor 1637
config **.node[144].yCor 3438

vector 0 TaxiNetwork.node[115] visitedPerTimestep ETV
vector 1 TaxiNetwork.node[110] visitedPerTimestep ETV
vector 2 TaxiNetwork.node[116] visitedPerTimestep ETV
vector 3 TaxiNetwork.node[11] visitedPerTimestep ETV
vector 4 TaxiNetwork.node[17] visitedPerTimestep ETV
vector 5 TaxiNetwork.node[53] visitedPerTimestep ETV
vector 6 TaxiNetwork.node[104] visitedPerTimestep ETV
vector 7 TaxiNetwork.node[19] visitedPerTimestep ETV
vector 8 TaxiNetwork.node[3] visitedPerTimestep ETV
vector 9 TaxiNetwork.node[2] visitedPerTimestep ETV
vector 10 TaxiNetwork.node[33] visitedPerTimestep ETV
vector 11 TaxiNetwork.node[40] visitedPerTimestep ETV
vector 12 TaxiNetwork.node[32] visitedPerTimestep ETV
vector 13 TaxiNetwork.node[36] visitedPerTimestep ETV
vector 14 TaxiNetwork.node[31] visitedPerTimestep ETV
vector 15 TaxiNetwork.node[0] visitedPerTimestep ETV
vector 16 TaxiNetwork.node[7] visitedPerTimestep ETV
vector 17 TaxiNetwork.node[18] visitedPerTimestep ETV
vector 18 TaxiNetwork.node[139] visitedPerTimestep ETV
vector 19 TaxiNetwork.node[118] visitedPerTimestep ETV
vector 20 TaxiNetwork.node[100] visitedPerTimestep ETV
vector 21 TaxiNetwork.node[14] visitedPerTimestep ETV
vector 22 TaxiNetwork.node[101] visitedPerTimestep ETV
vector 23 TaxiNetwork.node[87] visitedPerTimestep ETV
vector 24 TaxiNetwork.node[44] visitedPerTimestep ETV
vector 25 TaxiNetwork.node[137] visitedPerTimestep ETV
vector 26 TaxiNetwork.node[103] visitedPerTimestep ETV
vector 27 TaxiNetwork.node[4] visitedPerTimestep ETV
vector 28 TaxiNetwork.node[92] visitedPerTimestep ETV
vector 29 TaxiNetwork.node[91] visitedPerTimestep ETV
vector 30 TaxiNetwork.node[16] visitedPerTimestep ETV
vector 31 TaxiNetwork.node[30] visitedPerTimestep ETV
vector 32 TaxiNetwork.node[120] visitedPerTimestep ETV
vector 33 TaxiNetwork.node[1] visitedPerTimestep ETV
vector 34 TaxiNetwork.node[85] visitedPerTimestep ETV
vector 35 TaxiNetwork.node[138] visitedPerTimestep ETV
vector 36 TaxiNetwork.node[140] visitedPerTimestep ETV
vector 37 TaxiNetwork.node[37] visitedPerTimestep ETV
vector 38 TaxiNetwork.node[35] visitedPerTimestep ETV
vector 39 TaxiNetwork.node[82] visitedPerTimestep ETV
vector 40 TaxiNetwork.node[8] visitedPerTimestep ETV
vector 41 TaxiNetwork.node[15] visitedPerTimestep ETV
vector 42 TaxiNetwork.node[89] visitedPerTimestep ETV
vector 43 TaxiNetwork.node[20] visitedPerTimestep ETV
vector 44 TaxiNetwork.node[10] visitedPerTimestep ETV
vector 45 TaxiNetwork.node[46] visitedPerTimestep ETV
vector 46 TaxiNetwork.node[12] visitedPerTimestep ETV
vector 47 TaxiNetwork.node[56] visitedPerTimestep ETV
vector 48 TaxiNetwork.node[117] visitedPerTimestep ETV
vector 49 TaxiNetwork.node[93] visitedPerTimestep ETV
vector 50 TaxiNetwork.node[86] visitedPerTimestep ETV
vector 51 TaxiNetwork.node[142] visitedPerTimestep ETV
vector 52 TaxiNetwork.node[84] visitedPerTimestep ETV
vector 53 TaxiNetwork.node[67] visitedPerTimestep ETV
vector 54 TaxiNetwork.node[143] visitedPerTimestep ETV
vector 55 TaxiNetwork.node[73] visitedPerTimestep ETV
vector 56 TaxiNetwork.node[121] visitedPerTimestep ETV
vector 57 TaxiNetwork.node[64] visitedPerTimestep ETV
vector 58 TaxiNetwork.node[70] visitedPerTimestep ETV
vector 59 TaxiNetwork.node[126] visitedPerTimestep ETV
vector 60 TaxiNetwork.node[68] visitedPerTimestep ETV
vector 61 TaxiNetwork.node[75] visitedPerTimestep ETV
vector 62 TaxiNetwork.node[128] visitedPerTimestep ETV
vector 63 TaxiNetwork.node[69] visitedPerTimestep ETV
vector 64 TaxiNetwork.node[61] visitedPerTimestep ETV
vector 65 TaxiNetwork.node[99] visitedPerTimestep ETV
vector 66 TaxiNetwork.node[132] visitedPerTimestep ETV
vector 67 TaxiNetwork.node[79] visitedPerTimestep ETV
vector 68 TaxiNetwork.node[60] visitedPerTimestep ETV
vector 69 TaxiNetwork.node[62] visitedPerTimestep ETV
vector 70 TaxiNetwork.node[76] visitedPerTimestep ETV
vector 71 TaxiNetwork.node[71] visitedPerTimestep ETV
vector 72 TaxiNetwork.node[95] visitedPerTimestep ETV
vector 73 TaxiNetwork.node[130] visitedPerTimestep ETV
vector 74 TaxiNetwork.node[133] visitedPerTimestep ETV
vector 75 TaxiNetwork.node[80] visitedPerTimestep ETV
vector 76 TaxiNetwork.node[45] visitedPerTimestep ETV
vector 77 TaxiNetwork.node[27] visitedPerTimestep ETV
vector 78 TaxiNetwork.node[22] visitedPerTimestep ETV
vector 79 TaxiNetwork.node[28] visitedPerTimestep ETV
vector 80 TaxiNetwork.node[29] visitedPerTimestep ETV
vector 81 TaxiNetwork.node[39] visitedPerTimestep ETV
vector 82 TaxiNetwork.node[9] visitedPerTimestep ETV
vector 83 TaxiNetwork.node[88] visitedPerTimestep ETV
vector 84 TaxiNetwork.node[6] visitedPerTimestep ETV
vector 85 TaxiNetwork.node[122] visitedPerTimestep ETV
vector 86 TaxiNetwork.node[66] visitedPerTimestep ETV
vector 87 TaxiNetwork.node[77] visitedPerTimestep ETV
vector 88 TaxiNetwork.node[72] visitedPerTimestep ETV
vector 89 TaxiNetwork.node[131] visitedPerTimestep ETV
vector 90 TaxiNetwork.node[63] visitedPerTimestep ETV
vector 91 TaxiNetwork.node[78] visitedPerTimestep ETV
vector 92 TaxiNetwork.node[13] visitedPerTimestep ETV
vector 93 TaxiNetwork.node[55] visitedPerTimestep ETV
vector 94 TaxiNetwork.node[34] visitedPerTimestep ETV
vector 95 TaxiNetwork.node[90] visitedPerTimestep ETV
vector 96 TaxiNetwork.node[113] visitedPerTimestep ETV
vector 97 TaxiNetwork.node[5] visitedPerTimestep ETV
vector 98 TaxiNetwork.node[141] visitedPerTimestep ETV
vector 99 TaxiNetwork.node[94] visitedPerTimestep ETV
vector 100 TaxiNetwork.node[123] visitedPerTimestep ETV
vector 101 TaxiNetwork.node[106] visitedPerTimestep ETV
vector 102 TaxiNetwork.node[114] visitedPerTimestep ETV
vector 103 TaxiNetwork.node[58] visitedPerTimestep ETV
vector 104 TaxiNetwork.node[52] visitedPerTimestep ETV
vector 105 TaxiNetwork.node[83] visitedPerTimestep ETV
vector 106 TaxiNetwork.node[102] visitedPerTimestep ETV
vector 107 TaxiNetwork.node[111] visitedPerTimestep ETV
vector 108 TaxiNetwork.node[57] visitedPerTimestep ETV
vector 109 TaxiNetwork.node[54] visitedPerTimestep ETV
vector 110 TaxiNetwork.node[21] visitedPerTimestep ETV
vector 111 TaxiNetwork.node[26] visitedPerTimestep ETV
vector 112 TaxiNetwork.node[59] visitedPerTimestep ETV
vector 113 TaxiNetwork.node[112] visitedPerTimestep ETV
vector 114 TaxiNetwork.node[119] visitedPerTimestep ETV
vector 115 TaxiNetwork.node[74] visitedPerTimestep ETV
vector 116 TaxiNetwork.node[97] visitedPerTimestep ETV
vector 117 TaxiNetwork.node[24] visitedPerTimestep ETV
vector 118 TaxiNetwork.node[105] visitedPerTimestep ETV
vector 119 TaxiNetwork.node[65] visitedPerTimestep ETV
vector 120 TaxiNetwork.node[124] visitedPerTimestep ETV
vector 121 TaxiNetwork.node[129] visitedPerTimestep ETV
vector 122 TaxiNetwork.node[96] visitedPerTimestep ETV
vector 123 TaxiNetwork.node[134] visitedPerTimestep ETV
vector 124 TaxiNetwork.node[108] visitedPerTimestep ETV
vector 125 TaxiNetwork.node[25] visitedPerTimestep ETV
vector 126 TaxiNetwork.node[41] visitedPerTimestep ETV
vector 127 TaxiNetwork.node[109] visitedPerTimestep ETV
vector 128 TaxiNetwork.node[127] visitedPerTimestep ETV
vector 129 TaxiNetwork.node[144] visitedPerTimestep ETV
vector 130 TaxiNetwork.node[135] visitedPerTimestep ETV
vector 131 TaxiNetwork.node[47] visitedPerTimestep ETV
vector 132 TaxiNetwork.node[48] visitedPerTimestep ETV
vector 133 TaxiNetwork.node[98] visitedPerTimestep ETV
vector 134 TaxiNetwork.node[136] visitedPerTimestep ETV
vector 135 TaxiNetwork.node[49] visitedPerTimestep ETV
vector 136 TaxiNetwork.node[51] visitedPerTimestep ETV
vector 137 TaxiNetwork.node[42] visitedPerTimestep ETV
vector 138 TaxiNetwork.node[43] visitedPerTimestep ETV
0	1	0	1
0	246	0	92
0	338	0	108
0	395	0	112
0	401	0	113
0	438	0	113
0	458	0	113
0	565	0	118
0	651	0	120
0	711	0	120
0	927	0	123
0	1314	0	133
0	2034	0	137
0	2092	0	137
0	2208	0	138
0	2438	0	138
0	2522	0	138
0	2676	0	138
0	2770	0	140
0	3608	0	140
0	3772	0	143
0	4100	0	143
0	4412	0	143
0	4844	0	143
0	5180	0	143
0	5732	0	143
0	6676	0	143
1	2	0	2
1	129	0	74
1	228	0	91
1	495	0	118
1	696	0	120
1	851	0	121
1	934	0	123
1	960	0	123
1	1166	0	124
1	1850	0	137
1	1856	0	137
1	1934	0	137
1	2096	0	137
1	2836	0	140
1	4316	0	143
1	5032	0	143
1	5332	0	143
1	5692	0	143
1	5836	0	143
1	5932	0	143
1	6020	0	143
1	6468	0	143
2	3	0	3
2	74	0	49
2	288	0	102
2	341	0	109
2	436	0	113
2	462	0	115
2	509	0	118
2	583	0	118
2	712	0	120
2	745	0	120
2	813	0	120
2	1110	0	124
2	1234	0	124
2	1424	0	137
2	1648	0	137
2	1944	0	137
2	2162	0	138
2	2190	0	138
2	2498	0	138
2	2862	0	140
2	2978	0	140
2	2984	0	140
2	3196	0	140
2	3724	0	140
2	4004	0	143
2	4548	0	143
2	5228	0	143
2	6036	0	143
2	6784	0	143
3	4	0	4
3	73	0	49
3	170	0	83
3	262	0	96
3	428	0	113
3	523	0	118
3	618	0	120
3	656	0	120
3	661	0	120
3	667	0	120
3	707	0	120
3	806	0	120
3	877	0	121
3	908	0	121
3	935	0	123
3	1020	0	124
3	2094	0	137
3	2168	0	138
3	2202	0	138
3	2492	0	138
3	2648	0	138
3	3316	0	140
3	4300	0	143
3	4340	0	143
3	4396	0	143
3	4612	0	143
3	5128	0	143
3	5164	0	143
3	5236	0	143
3	5504	0	143
3	5688	0	143
3	5728	0	143
3	6208	0	143
3	6416	0	143
3	6764	0	143
4	5	0	5
4	26	0	20
4	185	0	84
4	208	0	86
4	309	0	107
4	414	0	113
4	533	0	118
4	569	0	118
4	671	0	120
4	702	0	120
4	886	0	121
4	1108	0	124
4	1268	0	133
4	1332	0	133
4	1666	0	137
4	1716	0	137
4	2224	0	138
4	2322	0	138
4	2376	0	138
4	2502	0	138
4	2576	0	138
4	2580	0	138
4	2616	0	138
4	2726	0	140
4	2878	0	140
4	3100	0	140
4	3472	0	140
4	3556	0	140
4	3960	0	143
4	4556	0	143
4	4600	0	143
4	4804	0	143
4	5200	0	143
4	5308	0	143
4	5316	0	143
4	5484	0	143
4	5888	0	143
4	6140	0	143
4	6160	0	143
4	6360	0	143
4	6576	0	143
4	6804	0	143
5	6	0	6
5	280	0	101
5	344	0	109
5	624	0	120
5	632	0	120
5	643	0	120
5	713	0	120
5	727	0	120
5	765	0	120
5	767	0	120
5	930	0	123
5	1088	0	124
5	1978	0	137
5	2022	0	137
5	2442	0	138
5	2474	0	138
5	2508	0	138
5	2656	0	138
5	3096	0	140
5	3568	0	140
5	4108	0	143
5	5848	0	143
5	6732	0	143
6	7	0	7
6	30	0	23
6	52	0	37
6	296	0	106
6	636	0	120
6	639	0	120
6	752	0	120
6	755	0	120
6	995	0	124
6	1044	0	124
6	1126	0	124
6	1190	0	124
6	1276	0	133
6	1302	0	133
6	1434	0	137
6	1682	0	137
6	1968	0	137
6	2126	0	138
6	2216	0	138
6	2236	0	138
6	2462	0	138
6	2568	0	138
6	2574	0	138
6	2592	0	138
6	2704	0	140
6	2892	0	140
6	2958	0	140
6	3492	0	140
6	3892	0	143
6	4268	0	143
6	4384	0	143
6	4572	0	143
6	4728	0	143
6	5008	0	143
6	5376	0	143
6	5444	0	143
6	5864	0	143
6	6748	0	143
7	8	0	8
7	19	0	15
7	31	0	23
7	43	0	32
7	194	0	85
7	205	0	85
7	249	0	93
7	422	0	113
7	635	0	120
7	900	0	121
7	991	0	124
7	1288	0	133
7	1764	0	137
7	1804	0	137
7	2270	0	138
7	2314	0	138
7	2326	0	138
7	2422	0	138
7	2684	0	138
7	2688	0	139
7	3552	0	140
7	3888	0	143
7	4620	0	143
7	4904	0	143
7	5408	0	143
7	5588	0	143
7	6076	0	143
7	6812	0	143
8	9	0	9
8	21	0	16
8	70	0	47
8	187	0	84
8	463	0	115
8	514	0	118
8	625	0	120
8	674	0	120
8	736	0	120
8	807	0	120
8	810	0	120
8	824	0	120
8	1324	0	133
8	1952	0	137
8	1976	0	137
8	1982	0	137
8	2048	0	137
8	2180	0	138
8	2268	0	138
8	2426	0	138
8	2796	0	140
8	2888	0	140
8	2902	0	140
8	3112	0	140
8	3648	0	140
8	4052	0	143
8	4132	0	143
8	4908	0	143
8	5672	0	143
8	5824	0	143
8	6192	0	143
8	6228	0	143
8	6612	0	143
8	6772	0	143
8	6800	0	143
9	10	0	10
9	88	0	53
9	188	0	84
9	278	0	101
9	320	0	107
9	348	0	109
9	350	0	109
9	537	0	118
9	553	0	118
9	716	0	120
9	892	0	121
9	940	0	123
9	947	0	123
9	1038	0	124
9	1050	0	124
9	1056	0	124
9	1202	0	124
9	1408	0	137
9	1644	0	137
9	1754	0	137
9	1762	0	137
9	2140	0	138
9	2158	0	138
9	2186	0	138
9	2382	0	138
9	2394	0	138
9	2764	0	140
9	2970	0	140
9	3376	0	140
9	3692	0	140
9	3920	0	143
9	5812	0	143
9	6084	0	143
10	11	0	11
10	13	0	12
10	48	0	34
10	153	0	78
10	159	0	81
10	558	0	118
10	621	0	120
10	669	0	120
10	750	0	120
10	790	0	120
10	795	0	120
10	987	0	124
10	1216	0	124
10	1416	0	137
10	2058	0	137
10	2132	0	138
10	2138	0	138
10	2226	0	138
10	2334	0	138
10	2566	0	138
10	2738	0	140
10	3032	0	140
10	3300	0	140
10	3452	0	140
10	3736	0	140
10	4760	0	143
10	4800	0	143
10	6620	0	143
11	12	0	12
11	16	0	14
11	382	0	111
11	479	0	118
11	828	0	120
11	898	0	121
11	938	0	123
11	1188	0	124
11	1516	0	137
11	1708	0	137
11	1776	0	137
11	2238	0	138
11	2960	0	140
11	3248	0	140
11	3296	0	140
11	4172	0	143
11	4652	0	143
11	5432	0	143
12	14	0	13
12	17	0	14
12	149	0	77
12	163	0	82
12	275	0	100
12	376	0	110
12	419	0	113
12	557	0	118
12	670	0	120
12	797	0	120
12	831	0	120
12	872	0	121
12	1134	0	124
12	1348	0	133
12	1712	0	137
12	1816	0	137
12	1820	0	137
12	2234	0	138
12	2248	0	138
12	2298	0	138
12	2542	0	138
12	3228	0	140
12	3532	0	140
12	3624	0	140
12	3704	0	140
12	3948	0	143
12	4088	0	143
12	4164	0	143
12	4188	0	143
12	4356	0	143
12	4444	0	143
12	4712	0	143
12	4764	0	143
12	4924	0	143
12	5868	0	143
12	5904	0	143
12	6564	0	143
13	15	0	14
13	150	0	77
13	358	0	109
13	381	0	111
13	789	0	120
13	1004	0	124
13	1358	0	133
13	1364	0	133
13	1458	0	137
13	1502	0	137
13	1706	0	137
13	1964	0	137
13	2240	0	138
13	2274	0	138
13	2286	0	138
13	2788	0	140
13	3168	0	140
13	3252	0	140
13	3284	0	140
13	3868	0	143
13	4080	0	143
13	4528	0	143
13	5136	0	143
13	5388	0	143
13	5804	0	143
13	6832	0	143
13	6852	0	143
14	18	0	15
14	158	0	81
14	204	0	85
14	258	0	95
14	297	0	106
14	881	0	121
14	996	0	124
14	1492	0	137
14	2064	0	137
14	2546	0	138
14	2562	0	138
14	3288	0	140
14	3496	0	140
14	3908	0	143
14	4176	0	143
14	4704	0	143
14	5144	0	143
14	5152	0	143
14	6840	0	143
15	20	0	16
15	44	0	32
15	172	0	83
15	199	0	85
15	315	0	107
15	324	0	107
15	351	0	109
15	431	0	113
15	659	0	120
15	682	0	120
15	754	0	120
15	870	0	121
15	982	0	124
15	1054	0	124
15	1200	0	124
15	1520	0	137
15	1664	0	137
15	1724	0	137
15	1730	0	137
15	1734	0	137
15	2200	0	138
15	2384	0	138
15	2696	0	140
15	2832	0	140
15	2990	0	140
15	3368	0	140
15	3784	0	143
15	3972	0	143
15	4212	0	143
15	4248	0	143
15	4256	0	143
15	4744	0	143
15	5360	0	143
15	5420	0	143
15	5616	0	143
15	6196	0	143
15	6304	0	143
15	6588	0	143
15	6808	0	143
16	22	0	17
16	142	0	76
16	166	0	83
16	200	0	85
16	311	0	107
16	313	0	107
16	364	0	110
16	386	0	112
16	408	0	113
16	415	0	113
16	546	0	118
16	555	0	118
16	561	0	118
16	710	0	120
16	757	0	120
16	783	0	120
16	889	0	121
16	992	0	124
16	1750	0	137
16	2194	0	138
16	2218	0	138
16	2354	0	138
16	2390	0	138
16	2418	0	138
16	2424	0	138
16	2578	0	138
16	2664	0	138
16	2716	0	140
16	2994	0	140
16	3176	0	140
16	3332	0	140
16	3340	0	140
16	3348	0	140
16	3616	0	140
16	3760	0	141
16	4104	0	143
16	4236	0	143
16	4292	0	143
16	4416	0	143
16	4608	0	143
16	4696	0	143
16	5016	0	143
16	5028	0	143
16	5328	0	143
16	6148	0	143
16	6268	0	143
16	6296	0	143
16	6744	0	143
17	23	0	18
17	90	0	53
17	176	0	84
17	279	0	101
17	293	0	105
17	319	0	107
17	423	0	113
17	522	0	118
17	578	0	118
17	622	0	120
17	698	0	120
17	715	0	120
17	751	0	120
17	864	0	121
17	876	0	121
17	963	0	123
17	966	0	123
17	1000	0	124
17	1362	0	133
17	1386	0	134
17	2142	0	138
17	2264	0	138
17	2280	0	138
17	2284	0	138
17	2348	0	138
17	2378	0	138
17	2702	0	140
17	3224	0	140
17	3336	0	140
17	3732	0	140
17	3764	0	142
17	3848	0	143
17	3912	0	143
17	4408	0	143
17	4524	0	143
17	4820	0	143
17	5088	0	143
17	5464	0	143
17	5892	0	143
17	6216	0	143
17	6696	0	143
17	6708	0	143
17	6836	0	143
18	24	0	19
18	67	0	47
18	183	0	84
18	198	0	85
18	287	0	102
18	304	0	107
18	388	0	112
18	391	0	112
18	619	0	120
18	637	0	120
18	686	0	120
18	759	0	120
18	894	0	121
18	928	0	123
18	986	0	124
18	988	0	124
18	1230	0	124
18	1264	0	132
18	1340	0	133
18	1476	0	137
18	1748	0	137
18	2072	0	137
18	2228	0	138
18	2282	0	138
18	2336	0	138
18	2362	0	138
18	2396	0	138
18	2416	0	138
18	2586	0	138
18	2786	0	140
18	2864	0	140
18	3084	0	140
18	3208	0	140
18	3768	0	143
18	4220	0	143
18	4232	0	143
18	4616	0	143
18	4732	0	143
18	5068	0	143
18	5188	0	143
18	5304	0	143
18	5320	0	143
18	5372	0	143
18	5404	0	143
18	5604	0	143
18	6528	0	143
18	6680	0	143
19	25	0	20
19	180	0	84
19	191	0	85
19	283	0	102
19	327	0	107
19	336	0	108
19	393	0	112
19	508	0	118
19	560	0	118
19	589	0	118
19	718	0	120
19	761	0	120
19	1668	0	137
19	1738	0	137
19	1786	0	137
19	1950	0	137
19	2016	0	137
19	2222	0	138
19	2356	0	138
19	2446	0	138
19	2478	0	138
19	2720	0	140
19	2946	0	140
19	3088	0	140
19	3416	0	140
19	4012	0	143
19	4116	0	143
19	4836	0	143
19	4848	0	143
19	6380	0	143
19	6516	0	143
19	6692	0	143
19	6776	0	143
20	27	0	21
20	209	0	86
20	245	0	92
20	328	0	107
20	333	0	107
20	400	0	113
20	417	0	113
20	426	0	113
20	439	0	113
20	441	0	113
20	505	0	118
20	544	0	118
20	627	0	120
20	647	0	120
20	657	0	120
20	705	0	120
20	784	0	120
20	803	0	120
20	962	0	123
20	970	0	123
20	999	0	124
20	1032	0	124
20	1048	0	124
20	1120	0	124
20	1252	0	127
20	1338	0	133
20	1532	0	137
20	2472	0	138
20	2504	0	138
20	2766	0	140
20	2860	0	140
20	4428	0	143
20	4780	0	143
20	5220	0	143
20	5508	0	143
20	5832	0	143
20	6212	0	143
21	28	0	22
21	68	0	47
21	76	0	49
21	82	0	51
21	210	0	86
21	532	0	118
21	719	0	120
21	733	0	120
21	787	0	120
21	816	0	120
21	888	0	121
21	1024	0	124
21	1194	0	124
21	1304	0	133
21	1426	0	137
21	1488	0	137
21	1638	0	137
21	1646	0	137
21	1946	0	137
21	2036	0	137
21	2088	0	137
21	2440	0	138
21	2454	0	138
21	2532	0	138
21	2732	0	140
21	2798	0	140
21	2954	0	140
21	2992	0	140
21	3220	0	140
21	3276	0	140
21	3992	0	143
21	4364	0	143
21	5276	0	143
21	5744	0	143
21	6320	0	143
21	6780	0	143
22	29	0	23
22	151	0	77
22	184	0	84
22	538	0	118
22	747	0	120
22	792	0	120
22	829	0	120
22	941	0	123
22	1006	0	124
22	1130	0	124
22	1184	0	124
22	1228	0	124
22	1410	0	137
22	1428	0	137
22	1446	0	137
22	1514	0	137
22	1802	0	137
22	1956	0	137
22	2078	0	137
22	2306	0	138
22	2374	0	138
22	2548	0	138
22	2746	0	140
22	2794	0	140
22	3440	0	140
22	3448	0	140
22	3504	0	140
22	3832	0	143
22	3864	0	143
22	4160	0	143
22	4264	0	143
22	4540	0	143
22	4636	0	143
22	5080	0	143
22	5120	0	143
22	5368	0	143
22	5436	0	143
22	5596	0	143
22	6100	0	143
22	6368	0	143
22	6392	0	143
22	6724	0	143
22	6860	0	143
23	32	0	24
23	77	0	49
23	148	0	77
23	299	0	107
23	411	0	113
23	455	0	113
23	464	0	115
23	471	0	115
23	666	0	120
23	879	0	121
23	949	0	123
23	953	0	123
23	1014	0	124
23	1058	0	124
23	1128	0	124
23	1468	0	137
23	1654	0	137
23	1692	0	137
23	1994	0	137
23	2084	0	137
23	2178	0	138
23	2312	0	138
23	2340	0	138
23	2584	0	138
23	3008	0	140
23	3028	0	140
23	3352	0	140
23	3940	0	143
23	4424	0	143
23	4460	0	143
23	4740	0	143
23	4868	0	143
23	5076	0	143
23	5652	0	143
23	5752	0	143
23	6404	0	143
23	6412	0	143
24	33	0	25
24	35	0	26
24	140	0	76
24	286	0	102
24	323	0	107
24	345	0	109
24	398	0	113
24	486	0	118
24	535	0	118
24	662	0	120
24	690	0	120
24	692	0	120
24	728	0	120
24	926	0	123
24	933	0	123
24	1042	0	124
24	1100	0	124
24	1168	0	124
24	1254	0	127
24	1272	0	133
24	1294	0	133
24	1352	0	133
24	1486	0	137
24	1524	0	137
24	1736	0	137
24	1834	0	137
24	2160	0	138
24	2166	0	138
24	2722	0	140
24	2884	0	140
24	2996	0	140
24	3308	0	140
24	3548	0	140
24	3720	0	140
24	3792	0	143
24	3968	0	143
24	3980	0	143
24	3996	0	143
24	4048	0	143
24	4576	0	143
24	5352	0	143
24	5724	0	143
24	5840	0	143
24	5912	0	143
24	6260	0	143
24	6288	0	143
24	6688	0	143
25	34	0	26
25	39	0	29
25	86	0	52
25	171	0	83
25	310	0	107
25	326	0	107
25	349	0	109
25	634	0	120
25	653	0	120
25	675	0	120
25	699	0	120
25	706	0	120
25	714	0	120
25	737	0	120
25	753	0	120
25	875	0	121
25	891	0	121
25	944	0	123
25	1034	0	124
25	1448	0	137
25	1980	0	137
25	1990	0	137
25	2156	0	138
25	2192	0	138
25	2448	0	138
25	2490	0	138
25	3468	0	140
25	3560	0	140
25	3956	0	143
25	4024	0	143
25	4072	0	143
25	4096	0	143
25	4288	0	143
25	4544	0	143
25	4584	0	143
25	4832	0	143
25	5268	0	143
25	5460	0	143
25	6088	0	143
25	6252	0	143
26	36	0	27
26	141	0	76
26	365	0	110
26	434	0	113
26	507	0	118
26	524	0	118
26	566	0	118
26	579	0	118
26	593	0	119
26	641	0	120
26	652	0	120
26	744	0	120
26	805	0	120
26	814	0	120
26	863	0	121
26	1262	0	131
26	1330	0	133
26	1620	0	137
26	1720	0	137
26	1932	0	137
26	2032	0	137
26	2052	0	137
26	2260	0	138
26	2266	0	138
26	2484	0	138
26	2692	0	140
26	3044	0	140
26	3680	0	140
26	3712	0	140
26	4436	0	143
26	4496	0	143
26	4552	0	143
26	5644	0	143
26	5736	0	143
26	5884	0	143
26	6032	0	143
26	6224	0	143
26	6356	0	143
26	6796	0	143
27	37	0	28
27	92	0	53
27	165	0	83
27	212	0	86
27	253	0	94
27	318	0	107
27	506	0	118
27	571	0	118
27	646	0	120
27	658	0	120
27	1240	0	124
27	1256	0	128
27	1680	0	137
27	1694	0	137
27	2152	0	138
27	2318	0	138
27	2600	0	138
27	2666	0	138
27	2734	0	140
27	2750	0	140
27	3080	0	140
27	3188	0	140
27	3360	0	140
27	3844	0	143
27	3896	0	143
27	3964	0	143
27	4736	0	143
27	5324	0	143
27	5480	0	143
27	5828	0	143
27	6044	0	143
27	6348	0	143
27	6532	0	143
28	38	0	29
28	56	0	40
28	254	0	94
28	360	0	109
28	424	0	113
28	432	0	113
28	445	0	113
28	827	0	120
28	896	0	121
28	939	0	123
28	1002	0	124
28	1052	0	124
28	1238	0	124
28	1244	0	124
28	1308	0	133
28	1366	0	133
28	1450	0	137
28	1686	0	137
28	1782	0	137
28	1790	0	137
28	2066	0	137
28	2278	0	138
28	2328	0	138
28	2682	0	138
28	2758	0	140
28	2804	0	140
28	3240	0	140
28	3500	0	140
28	4196	0	143
28	4276	0	143
28	4352	0	143
28	4672	0	143
28	4912	0	143
28	4936	0	143
28	6180	0	143
28	6328	0	143
28	6596	0	143
29	40	0	30
29	47	0	34
29	195	0	85
29	202	0	85
29	470	0	115
29	581	0	118
29	663	0	120
29	676	0	120
29	873	0	121
29	1282	0	133
29	1376	0	133
29	1384	0	134
29	1460	0	137
29	1690	0	137
29	1726	0	137
29	1988	0	137
29	2010	0	137
29	2044	0	137
29	2124	0	138
29	2342	0	138
29	2346	0	138
29	2998	0	140
29	3012	0	140
29	3280	0	140
29	3484	0	140
29	3528	0	140
29	3536	0	140
29	3652	0	140
29	3904	0	143
29	4056	0	143
29	4156	0	143
29	4504	0	143
29	4752	0	143
29	4864	0	143
29	4996	0	143
29	5020	0	143
29	5392	0	143
29	5456	0	143
29	5676	0	143
29	5792	0	143
29	5808	0	143
29	6132	0	143
29	6168	0	143
29	6396	0	143
29	6540	0	143
30	41	0	31
30	62	0	43
30	145	0	77
30	196	0	85
30	247	0	92
30	272	0	99
30	683	0	120
30	717	0	120
30	726	0	120
30	866	0	121
30	887	0	121
30	901	0	121
30	964	0	123
30	1094	0	124
30	1102	0	124
30	1196	0	124
30	1472	0	137
30	1788	0	137
30	2150	0	138
30	2188	0	138
30	2400	0	138
30	2414	0	138
30	2506	0	138
30	2526	0	138
30	2534	0	138
30	2572	0	138
30	2974	0	140
30	3092	0	140
30	4016	0	143
30	4224	0	143
30	5204	0	143
30	5284	0	143
30	5600	0	143
30	6072	0	143
30	6256	0	143
30	6316	0	143
30	6536	0	143
31	42	0	32
31	83	0	51
31	186	0	84
31	276	0	100
31	410	0	113
31	418	0	113
31	453	0	113
31	465	0	115
31	678	0	120
31	732	0	120
31	738	0	120
31	936	0	123
31	943	0	123
31	1018	0	124
31	1248	0	125
31	1334	0	133
31	1360	0	133
31	1676	0	137
31	1704	0	137
31	2080	0	137
31	2120	0	138
31	2174	0	138
31	2256	0	138
31	2330	0	138
31	2392	0	138
31	2602	0	138
31	2964	0	140
31	3116	0	140
31	3204	0	140
31	3460	0	140
31	4068	0	143
31	4808	0	143
31	5380	0	143
31	5440	0	143
31	5628	0	143
31	5660	0	143
31	6144	0	143
31	6652	0	143
32	45	0	33
32	192	0	85
32	273	0	99
32	332	0	107
32	562	0	118
32	577	0	118
32	672	0	120
32	688	0	120
32	812	0	120
32	903	0	121
32	967	0	123
32	1022	0	124
32	1062	0	124
32	1530	0	137
32	2008	0	137
32	2320	0	138
32	2364	0	138
32	2428	0	138
32	2460	0	138
32	2496	0	138
32	2606	0	138
32	2754	0	140
32	2986	0	140
32	3420	0	140
32	3600	0	140
32	3668	0	140
32	4028	0	143
32	4120	0	143
32	4208	0	143
32	5124	0	143
32	5488	0	143
32	5632	0	143
32	5680	0	143
32	5760	0	143
32	5880	0	143
33	46	0	34
33	84	0	51
33	89	0	53
33	143	0	76
33	270	0	99
33	330	0	107
33	416	0	113
33	440	0	113
33	450	0	113
33	520	0	118
33	668	0	120
33	708	0	120
33	785	0	120
33	1060	0	124
33	1080	0	124
33	1136	0	124
33	1760	0	137
33	1828	0	137
33	2610	0	138
33	3384	0	140
33	3464	0	140
33	3752	0	140
33	4152	0	143
33	4768	0	143
33	4824	0	143
33	5300	0	143
33	5648	0	143
33	5656	0	143
33	5920	0	143
33	6364	0	143
33	6372	0	143
33	6600	0	143
34	49	0	35
34	69	0	47
34	182	0	84
34	189	0	84
34	352	0	109
34	412	0	113
34	446	0	113
34	483	0	118
34	573	0	118
34	575	0	118
34	654	0	120
34	801	0	120
34	1148	0	124
34	1204	0	124
34	1336	0	133
34	1412	0	137
34	1684	0	137
34	1752	0	137
34	1814	0	137
34	1830	0	137
34	2026	0	137
34	2728	0	140
34	2876	0	140
34	3272	0	140
34	4604	0	143
34	4816	0	143
34	5208	0	143
34	5240	0	143
34	5472	0	143
34	5788	0	143
34	5872	0	143
34	6504	0	143
34	6616	0	143
35	50	0	36
35	79	0	50
35	177	0	84
35	251	0	94
35	302	0	107
35	329	0	107
35	346	0	109
35	392	0	112
35	435	0	113
35	454	0	113
35	526	0	118
35	559	0	118
35	582	0	118
35	746	0	120
35	760	0	120
35	804	0	120
35	865	0	121
35	989	0	124
35	1464	0	137
35	1652	0	137
35	1806	0	137
35	1948	0	137
35	2082	0	137
35	2206	0	138
35	2210	0	138
35	2450	0	138
35	2468	0	138
35	2524	0	138
35	2582	0	138
35	2896	0	140
35	2952	0	140
35	3676	0	140
35	3840	0	143
35	4348	0	143
35	4628	0	143
35	5196	0	143
35	5212	0	143
35	5468	0	143
35	5820	0	143
35	5852	0	143
35	6512	0	143
35	6644	0	143
35	6760	0	143
36	51	0	37
36	366	0	110
36	389	0	112
36	430	0	113
36	529	0	118
36	554	0	118
36	655	0	120
36	782	0	120
36	871	0	121
36	907	0	121
36	1076	0	124
36	1146	0	124
36	1632	0	137
36	2002	0	137
36	2204	0	138
36	2230	0	138
36	2694	0	140
36	2868	0	140
36	3172	0	140
36	3264	0	140
36	3364	0	140
36	3544	0	140
36	3660	0	140
36	4244	0	143
36	4368	0	143
36	4456	0	143
36	4676	0	143
36	4720	0	143
36	4756	0	143
36	4776	0	143
36	5072	0	143
36	5272	0	143
36	5844	0	143
36	6124	0	143
36	6204	0	143
36	6232	0	143
36	6584	0	143
37	53	0	38
37	162	0	82
37	357	0	109
37	796	0	120
37	1214	0	124
37	1498	0	137
37	1512	0	137
37	2300	0	138
37	2408	0	138
37	2556	0	138
37	3436	0	140
37	3800	0	143
37	3860	0	143
37	4668	0	143
37	5116	0	143
37	6632	0	143
38	54	0	39
38	160	0	81
38	830	0	120
38	1208	0	124
38	1500	0	137
38	2136	0	138
38	2242	0	138
38	2410	0	138
38	3128	0	140
38	4664	0	143
38	6176	0	143
39	55	0	40
39	59	0	42
39	375	0	110
39	378	0	110
39	384	0	112
39	475	0	117
39	1702	0	137
39	2128	0	138
39	2302	0	138
39	2544	0	138
39	2552	0	138
39	3124	0	140
39	3156	0	140
39	4168	0	143
39	4180	0	143
39	5768	0	143
39	6104	0	143
39	6816	0	143
39	6824	0	143
39	6844	0	143
40	57	0	41
40	169	0	83
40	173	0	83
40	337	0	108
40	447	0	113
40	518	0	118
40	525	0	118
40	574	0	118
40	689	0	120
40	697	0	120
40	902	0	121
40	961	0	123
40	1016	0	124
40	1070	0	124
40	1098	0	124
40	1462	0	137
40	1696	0	137
40	1798	0	137
40	2118	0	138
40	2402	0	138
40	2608	0	138
40	2672	0	138
40	2834	0	140
40	2948	0	140
40	3320	0	140
40	3476	0	140
40	3728	0	140
40	3744	0	140
40	3756	0	141
40	4404	0	143
40	4588	0	143
40	4748	0	143
40	5004	0	143
40	5356	0	143
40	5608	0	143
40	5620	0	143
40	6184	0	143
40	6308	0	143
40	6352	0	143
40	6376	0	143
40	6592	0	143
41	58	0	42
41	60	0	42
41	178	0	84
41	301	0	107
41	331	0	107
41	367	0	110
41	448	0	113
41	516	0	118
41	899	0	121
41	937	0	123
41	1028	0	124
41	1036	0	124
41	1246	0	124
41	1350	0	133
41	1414	0	137
41	1518	0	137
41	1628	0	137
41	2062	0	137
41	3372	0	140
41	3380	0	140
41	3512	0	140
41	3620	0	140
41	3688	0	140
41	3696	0	140
41	3740	0	140
41	3856	0	143
41	3872	0	143
41	3932	0	143
41	4596	0	143
41	4624	0	143
41	4632	0	143
41	5428	0	143
41	5764	0	143
41	6052	0	143
41	6164	0	143
41	6700	0	143
42	61	0	43
42	175	0	84
42	314	0	107
42	449	0	113
42	484	0	118
42	515	0	118
42	534	0	118
42	545	0	118
42	802	0	120
42	957	0	123
42	1172	0	124
42	1292	0	133
42	1344	0	133
42	1370	0	133
42	1404	0	137
42	1418	0	137
42	1794	0	137
42	1824	0	137
42	2214	0	138
42	2250	0	138
42	2308	0	138
42	2316	0	138
42	2456	0	138
42	2536	0	138
42	2736	0	140
42	2870	0	140
42	2988	0	140
42	3020	0	140
42	3408	0	140
42	3508	0	140
42	3520	0	140
42	4192	0	143
42	4272	0	143
42	4296	0	143
42	4344	0	143
42	4784	0	143
42	4796	0	143
42	5064	0	143
42	5216	0	143
42	5860	0	143
42	6300	0	143
43	63	0	44
43	80	0	50
43	369	0	110
43	429	0	113
43	729	0	120
43	740	0	120
43	742	0	120
43	793	0	120
43	868	0	121
43	1198	0	124
43	1300	0	133
43	1346	0	133
43	1354	0	133
43	1490	0	137
43	1622	0	137
43	1996	0	137
43	2130	0	138
43	2170	0	138
43	2184	0	138
43	2232	0	138
43	2262	0	138
43	2276	0	138
43	2430	0	138
43	2464	0	138
43	2598	0	138
43	2686	0	138
43	2700	0	140
43	2744	0	140
43	3108	0	140
43	3656	0	140
43	3708	0	140
43	3876	0	143
43	3928	0	143
43	3944	0	143
43	3952	0	143
43	4388	0	143
43	4400	0	143
43	4440	0	143
43	4516	0	143
43	4580	0	143
43	5024	0	143
43	5816	0	143
43	6108	0	143
43	6200	0	143
43	6556	0	143
44	64	0	45
44	146	0	77
44	285	0	102
44	303	0	107
44	413	0	113
44	576	0	118
44	660	0	120
44	832	0	120
44	965	0	123
44	968	0	123
44	1010	0	124
44	1096	0	124
44	1122	0	124
44	1140	0	124
44	1182	0	124
44	1368	0	133
44	1372	0	133
44	1768	0	137
44	1986	0	137
44	2070	0	137
44	2690	0	139
44	2800	0	140
44	3180	0	140
44	3304	0	140
44	3388	0	140
44	3632	0	140
44	3684	0	140
44	4260	0	143
44	4392	0	143
44	4560	0	143
44	4716	0	143
44	5396	0	143
44	5908	0	143
44	6068	0	143
45	65	0	46
45	147	0	77
45	168	0	83
45	300	0	107
45	347	0	109
45	387	0	112
45	452	0	113
45	485	0	118
45	685	0	120
45	709	0	120
45	731	0	120
45	734	0	120
45	874	0	121
45	952	0	123
45	1258	0	129
45	1526	0	137
45	1822	0	137
45	2116	0	138
45	2172	0	138
45	2182	0	138
45	2338	0	138
45	2398	0	138
45	2570	0	138
45	2614	0	138
45	2966	0	140
45	3040	0	140
45	3324	0	140
45	3392	0	140
45	3516	0	140
45	3540	0	140
45	3716	0	140
45	4724	0	143
45	5612	0	143
45	5756	0	143
45	6060	0	143
46	66	0	47
46	261	0	96
46	322	0	107
46	769	0	120
46	780	0	120
46	906	0	121
46	983	0	124
46	1026	0	124
46	1306	0	133
46	1374	0	133
46	1642	0	137
46	1660	0	137
46	1722	0	137
46	1808	0	137
46	2254	0	138
46	2370	0	138
46	2470	0	138
46	2594	0	138
46	2604	0	138
46	2670	0	138
46	2802	0	140
46	3016	0	140
46	3024	0	140
46	3480	0	140
46	3900	0	143
46	4044	0	143
46	4420	0	143
46	5264	0	143
46	5476	0	143
46	6752	0	143
47	71	0	48
47	264	0	97
47	282	0	102
47	542	0	118
47	723	0	120
47	1114	0	124
47	1422	0	137
47	1480	0	137
47	2780	0	140
47	2900	0	140
47	2904	0	140
47	4036	0	143
47	5252	0	143
47	6276	0	143
47	6664	0	143
48	72	0	49
48	75	0	49
48	211	0	86
48	305	0	107
48	397	0	113
48	512	0	118
48	551	0	118
48	585	0	118
48	703	0	120
48	820	0	120
48	932	0	123
48	1072	0	124
48	1178	0	124
48	1232	0	124
48	1742	0	137
48	2500	0	138
48	2514	0	138
48	2530	0	138
48	2674	0	138
48	2714	0	140
48	2866	0	140
48	2898	0	140
48	3580	0	140
48	3588	0	140
48	4032	0	143
48	5248	0	143
48	5684	0	143
48	6736	0	143
48	6768	0	143
49	78	0	50
49	91	0	53
49	203	0	85
49	266	0	98
49	385	0	112
49	482	0	118
49	638	0	120
49	781	0	120
49	786	0	120
49	869	0	121
49	882	0	121
49	893	0	121
49	997	0	124
49	1078	0	124
49	1082	0	124
49	1436	0	137
49	1470	0	137
49	1698	0	137
49	1756	0	137
49	1974	0	137
49	2012	0	137
49	2060	0	137
49	2068	0	137
49	2290	0	138
49	2324	0	138
49	2668	0	138
49	2872	0	140
49	3404	0	140
49	3628	0	140
49	3884	0	143
49	4148	0	143
49	4284	0	143
49	4520	0	143
49	4700	0	143
49	4984	0	143
49	5000	0	143
49	5156	0	143
49	5280	0	143
49	6096	0	143
49	6248	0	143
49	6828	0	143
50	81	0	51
50	181	0	84
50	197	0	85
50	201	0	85
50	267	0	98
50	443	0	113
50	730	0	120
50	904	0	121
50	1066	0	124
50	1144	0	124
50	1260	0	130
50	1452	0	137
50	1678	0	137
50	1718	0	137
50	1758	0	137
50	1784	0	137
50	2146	0	138
50	2420	0	138
50	2662	0	138
50	2712	0	140
50	2882	0	140
50	2886	0	140
50	3192	0	140
50	3200	0	140
50	3216	0	140
50	3664	0	140
50	3836	0	143
50	3916	0	143
50	3924	0	143
50	4828	0	143
50	5400	0	143
50	6292	0	143
51	85	0	52
51	179	0	84
51	312	0	107
51	343	0	109
51	362	0	110
51	513	0	118
51	644	0	120
51	673	0	120
51	684	0	120
51	756	0	120
51	768	0	120
51	794	0	120
51	945	0	123
51	948	0	123
51	1068	0	124
51	1286	0	133
51	1320	0	133
51	1328	0	133
51	1456	0	137
51	1474	0	137
51	1810	0	137
51	2122	0	138
51	2148	0	138
51	2528	0	138
51	2540	0	138
51	2678	0	138
51	2718	0	140
51	2806	0	140
51	3256	0	140
51	3596	0	140
51	3700	0	140
51	4372	0	143
51	4792	0	143
51	4916	0	143
51	5012	0	143
51	5132	0	143
51	5364	0	143
51	5500	0	143
51	6092	0	143
51	6188	0	143
51	6508	0	143
52	87	0	53
52	167	0	83
52	527	0	118
52	531	0	118
52	743	0	120
52	771	0	120
52	883	0	121
52	885	0	121
52	950	0	123
52	958	0	123
52	1626	0	137
52	1984	0	137
52	2042	0	137
52	3260	0	140
52	3640	0	140
52	4240	0	143
52	4380	0	143
52	4452	0	143
52	4568	0	143
52	5296	0	143
52	5784	0	143
53	93	0	54
53	213	0	86
53	224	0	89
53	491	0	118
53	770	0	120
53	772	0	120
53	779	0	120
53	951	0	123
53	981	0	124
53	1154	0	124
53	1572	0	137
53	2846	0	140
53	5416	0	143
53	5580	0	143
54	94	0	55
54	97	0	57
54	107	0	62
54	215	0	87
54	490	0	118
54	598	0	119
54	1878	0	137
54	2814	0	140
54	5040	0	143
55	95	0	56
55	104	0	61
55	222	0	89
55	234	0	91
55	501	0	118
55	918	0	122
55	1598	0	137
55	1612	0	137
55	5560	0	143
55	6432	0	143
56	96	0	57
56	100	0	59
56	130	0	74
56	223	0	89
56	239	0	92
56	489	0	118
56	774	0	120
56	910	0	121
56	1556	0	137
56	1602	0	137
56	1902	0	137
56	2620	0	138
56	2826	0	140
56	5556	0	143
57	98	0	58
57	102	0	60
57	488	0	118
57	497	0	118
57	607	0	120
57	613	0	120
57	860	0	121
57	923	0	123
57	978	0	124
57	1158	0	124
57	1562	0	137
57	1594	0	137
57	1870	0	137
57	1880	0	137
57	2110	0	138
57	2820	0	140
57	6440	0	143
58	99	0	59
58	117	0	69
58	126	0	74
58	227	0	91
58	240	0	92
58	849	0	121
58	861	0	121
58	976	0	124
58	1576	0	137
58	1848	0	137
58	1862	0	137
58	1900	0	137
58	4484	0	143
58	5960	0	143
58	6004	0	143
58	6028	0	143
59	101	0	60
59	216	0	87
59	236	0	92
59	500	0	118
59	604	0	120
59	1560	0	137
59	1600	0	137
59	5544	0	143
59	5564	0	143
60	103	0	61
60	105	0	61
60	108	0	62
60	123	0	73
60	132	0	75
60	217	0	87
60	241	0	92
60	609	0	120
60	842	0	121
60	848	0	121
60	916	0	122
60	972	0	124
60	1540	0	137
60	1838	0	137
60	2636	0	138
60	2850	0	140
60	3052	0	140
60	4308	0	143
60	4320	0	143
60	4480	0	143
60	5548	0	143
60	5976	0	143
60	6000	0	143
60	6444	0	143
61	106	0	62
61	119	0	70
61	233	0	91
61	603	0	120
61	777	0	120
61	977	0	124
61	5528	0	143
61	5536	0	143
62	109	0	63
62	111	0	64
62	125	0	74
62	127	0	74
62	136	0	76
62	494	0	118
62	834	0	120
62	850	0	121
62	909	0	121
62	974	0	124
62	1548	0	137
62	1582	0	137
62	1608	0	137
62	1836	0	137
62	1846	0	137
62	1854	0	137
62	1890	0	137
62	1896	0	137
62	2104	0	138
62	2838	0	140
62	4332	0	143
62	5520	0	143
62	5928	0	143
62	5988	0	143
62	6456	0	143
62	6484	0	143
63	110	0	64
63	496	0	118
63	1558	0	137
63	1592	0	137
63	1596	0	137
63	1858	0	137
63	1874	0	137
63	5972	0	143
63	5984	0	143
63	6448	0	143
63	6492	0	143
64	112	0	65
64	128	0	74
64	492	0	118
64	503	0	118
64	595	0	119
64	602	0	120
64	615	0	120
64	778	0	120
64	980	0	124
64	1156	0	124
64	1574	0	137
64	1908	0	137
64	1912	0	137
64	1924	0	137
64	2856	0	140
64	3056	0	140
64	4328	0	143
64	4488	0	143
64	4888	0	143
64	5036	0	143
64	5696	0	143
64	6428	0	143
64	6436	0	143
64	6452	0	143
64	6460	0	143
65	113	0	66
65	229	0	91
65	504	0	118
65	695	0	120
65	836	0	120
65	852	0	121
65	855	0	121
65	1844	0	137
65	1886	0	137
65	1906	0	137
65	2624	0	138
65	4304	0	143
66	114	0	67
66	487	0	118
66	594	0	119
66	854	0	121
66	859	0	121
66	1536	0	137
66	1618	0	137
66	1866	0	137
66	1930	0	137
66	2840	0	140
66	3048	0	140
66	3060	0	140
66	5720	0	143
66	6016	0	143
66	6496	0	143
67	115	0	68
67	138	0	76
67	243	0	92
67	502	0	118
67	838	0	121
67	840	0	121
67	843	0	121
67	911	0	121
67	1554	0	137
67	1910	0	137
67	1918	0	137
67	2642	0	138
67	4312	0	143
67	5700	0	143
67	6024	0	143
67	6464	0	143
67	6480	0	143
68	116	0	69
68	230	0	91
68	499	0	118
68	600	0	120
68	612	0	120
68	776	0	120
68	912	0	121
68	924	0	123
68	1610	0	137
68	1864	0	137
68	1882	0	137
68	1894	0	137
68	1920	0	137
68	2106	0	138
68	2816	0	140
68	2822	0	140
68	4880	0	143
68	5340	0	143
68	5572	0	143
68	5704	0	143
68	5716	0	143
69	118	0	70
69	917	0	122
69	1162	0	124
69	1606	0	137
69	1616	0	137
69	1884	0	137
69	3064	0	140
69	5048	0	143
69	5524	0	143
70	120	0	71
70	221	0	89
70	232	0	91
71	121	0	72
71	134	0	75
71	5532	0	143
72	122	0	73
72	133	0	75
72	839	0	121
72	857	0	121
72	1542	0	137
72	2638	0	138
73	124	0	74
73	137	0	76
73	139	0	76
73	238	0	92
73	244	0	92
73	617	0	120
73	841	0	121
73	844	0	121
73	862	0	121
73	925	0	123
73	1160	0	124
73	1534	0	137
73	1842	0	137
73	1852	0	137
73	1914	0	137
73	2818	0	140
73	2858	0	140
73	3072	0	140
73	4472	0	143
73	5708	0	143
73	6008	0	143
73	6488	0	143
74	131	0	75
74	219	0	88
74	237	0	92
74	606	0	120
74	608	0	120
74	616	0	120
74	846	0	121
74	914	0	121
74	1568	0	137
74	1876	0	137
74	1888	0	137
74	1928	0	137
74	2812	0	140
74	2852	0	140
74	5712	0	143
74	6476	0	143
75	135	0	76
75	856	0	121
75	858	0	121
75	1578	0	137
75	1584	0	137
75	1916	0	137
75	2626	0	138
75	5948	0	143
75	5956	0	143
75	5992	0	143
76	144	0	77
76	193	0	85
76	456	0	113
76	521	0	118
76	580	0	118
76	681	0	120
76	700	0	120
76	815	0	120
76	890	0	121
76	956	0	123
76	984	0	124
76	1092	0	124
76	1124	0	124
76	1640	0	137
76	1826	0	137
76	2000	0	137
76	2040	0	137
76	2154	0	138
76	2198	0	138
76	2352	0	138
76	2368	0	138
76	2404	0	138
76	2486	0	138
76	2698	0	140
76	2706	0	140
76	3000	0	140
76	3004	0	140
76	3328	0	140
76	3412	0	140
76	3424	0	140
76	3564	0	140
76	3936	0	143
76	3984	0	143
76	4060	0	143
76	4144	0	143
76	4592	0	143
76	4992	0	143
76	5260	0	143
76	5636	0	143
76	6040	0	143
76	6656	0	143
77	152	0	78
77	155	0	79
77	478	0	118
77	1222	0	124
77	1508	0	137
77	1772	0	137
77	3292	0	140
77	4644	0	143
77	6568	0	143
77	6720	0	143
78	154	0	79
78	379	0	110
78	798	0	120
78	1224	0	124
78	1494	0	137
78	1960	0	137
78	2246	0	138
78	2792	0	140
78	3132	0	140
78	3144	0	140
78	3152	0	140
78	5112	0	143
78	5900	0	143
78	6628	0	143
79	156	0	80
79	1392	0	134
79	5104	0	143
80	157	0	81
80	256	0	95
80	295	0	106
80	354	0	109
80	373	0	110
80	994	0	124
80	1186	0	124
80	1210	0	124
80	1390	0	134
80	1780	0	137
80	1958	0	137
80	1966	0	137
80	2292	0	138
80	3816	0	143
80	4660	0	143
80	6856	0	143
81	161	0	82
81	355	0	109
81	799	0	120
81	1132	0	124
81	1212	0	124
81	1220	0	124
81	1510	0	137
81	1818	0	137
81	2296	0	138
81	2550	0	138
81	2564	0	138
81	3148	0	140
81	3824	0	143
81	4084	0	143
81	5108	0	143
82	164	0	83
82	207	0	86
82	368	0	110
82	433	0	113
82	451	0	113
82	556	0	118
82	640	0	120
82	701	0	120
82	985	0	124
82	1040	0	124
82	1118	0	124
82	1192	0	124
82	1636	0	137
82	1656	0	137
82	1728	0	137
82	1812	0	137
82	1832	0	137
82	1992	0	137
82	2386	0	138
82	2880	0	140
82	2894	0	140
82	3644	0	140
82	4448	0	143
82	4508	0	143
82	5412	0	143
82	5640	0	143
82	5740	0	143
82	6220	0	143
82	6332	0	143
82	6552	0	143
83	174	0	84
83	306	0	107
83	321	0	107
83	363	0	110
83	519	0	118
83	564	0	118
83	630	0	120
83	735	0	120
83	822	0	120
83	929	0	123
83	1236	0	124
83	1312	0	133
83	1342	0	133
83	2014	0	137
83	2176	0	138
83	2372	0	138
83	2432	0	138
83	3748	0	140
83	4932	0	143
83	5748	0	143
83	5876	0	143
83	5916	0	143
83	6136	0	143
83	6156	0	143
83	6272	0	143
83	6520	0	143
83	6728	0	143
84	190	0	85
84	252	0	94
84	271	0	99
84	317	0	107
84	334	0	107
84	370	0	110
84	517	0	118
84	550	0	118
84	623	0	120
84	642	0	120
84	645	0	120
84	826	0	120
84	998	0	124
84	1180	0	124
84	1266	0	133
84	1284	0	133
84	1406	0	137
84	1420	0	137
84	1796	0	137
84	2164	0	138
84	2708	0	140
84	2782	0	140
84	2932	0	140
84	2940	0	140
84	3428	0	140
84	4040	0	143
84	4124	0	143
84	4376	0	143
84	4500	0	143
84	5452	0	143
84	5496	0	143
84	5512	0	143
84	5780	0	143
84	6384	0	143
84	6408	0	143
84	6640	0	143
84	6684	0	143
85	206	0	86
85	269	0	99
85	409	0	113
85	572	0	118
85	691	0	120
85	693	0	120
85	833	0	120
85	867	0	121
85	905	0	121
85	1138	0	124
85	1150	0	124
85	1170	0	124
85	1174	0	124
85	1250	0	126
85	1522	0	137
85	1662	0	137
85	2030	0	137
85	2054	0	137
85	2086	0	137
85	2258	0	138
85	2388	0	138
85	2724	0	140
85	2808	0	140
85	2828	0	140
85	3076	0	140
85	3636	0	140
85	4872	0	143
85	5516	0	143
85	5584	0	143
85	5924	0	143
85	6500	0	143
86	214	0	87
86	596	0	119
86	1152	0	124
86	1570	0	137
86	1926	0	137
86	2112	0	138
86	2824	0	140
86	4876	0	143
86	4896	0	143
86	5044	0	143
86	5576	0	143
86	6424	0	143
87	218	0	88
87	231	0	91
87	498	0	118
87	610	0	120
87	1566	0	137
87	1614	0	137
88	220	0	89
88	601	0	120
88	611	0	120
88	922	0	123
88	1564	0	137
88	2854	0	140
88	4884	0	143
88	5540	0	143
88	5552	0	143
89	225	0	90
89	242	0	92
89	773	0	120
89	775	0	120
89	845	0	121
89	853	0	121
89	973	0	124
89	1552	0	137
89	1604	0	137
89	2098	0	137
89	2646	0	138
89	2810	0	140
89	2844	0	140
89	4336	0	143
89	4468	0	143
89	4892	0	143
89	5348	0	143
89	5952	0	143
89	5980	0	143
89	6420	0	143
90	226	0	91
90	493	0	118
90	597	0	119
90	694	0	120
90	835	0	120
90	847	0	121
90	959	0	123
90	975	0	124
90	1590	0	137
90	1860	0	137
90	1868	0	137
90	1872	0	137
90	1904	0	137
90	1922	0	137
90	2848	0	140
90	5052	0	143
90	5336	0	143
90	5344	0	143
91	235	0	92
91	605	0	120
91	913	0	121
91	919	0	122
91	921	0	123
91	5568	0	143
92	248	0	93
92	260	0	96
92	284	0	102
92	342	0	109
92	425	0	113
92	530	0	118
92	536	0	118
92	680	0	120
92	758	0	120
92	1090	0	124
92	1176	0	124
92	1274	0	133
92	1296	0	133
92	1634	0	137
92	1650	0	137
92	1688	0	137
92	1766	0	137
92	1970	0	137
92	2024	0	137
92	2212	0	138
92	2366	0	138
92	2590	0	138
92	2660	0	138
92	2680	0	138
92	3592	0	140
92	4252	0	143
92	4280	0	143
92	4988	0	143
92	5776	0	143
92	6236	0	143
92	6336	0	143
92	6344	0	143
92	6604	0	143
93	250	0	94
93	390	0	112
93	444	0	113
93	468	0	115
93	631	0	120
93	677	0	120
93	741	0	120
93	748	0	120
93	788	0	120
93	1326	0	133
93	1356	0	133
93	1430	0	137
93	1630	0	137
93	2046	0	137
93	2332	0	138
93	2740	0	140
93	2756	0	140
93	2760	0	140
93	4076	0	143
93	4200	0	143
93	4684	0	143
93	4856	0	143
93	4980	0	143
93	5084	0	143
93	5592	0	143
93	5664	0	143
93	5772	0	143
93	5800	0	143
94	255	0	95
94	257	0	95
94	372	0	110
94	420	0	113
94	480	0	118
94	749	0	120
94	791	0	120
94	1218	0	124
94	1962	0	137
94	2134	0	138
94	3232	0	140
94	5096	0	143
94	6624	0	143
95	259	0	96
95	308	0	107
95	371	0	110
95	620	0	120
95	993	0	124
95	1008	0	124
95	1206	0	124
95	1278	0	133
95	2006	0	137
95	2074	0	137
95	2406	0	138
95	2452	0	138
95	2538	0	138
95	2752	0	140
95	2762	0	140
95	2930	0	140
95	3184	0	140
95	3236	0	140
95	3268	0	140
95	3444	0	140
95	3796	0	143
95	4020	0	143
95	4360	0	143
95	4680	0	143
95	4940	0	143
95	5384	0	143
95	5492	0	143
95	6636	0	143
96	263	0	97
96	340	0	109
96	406	0	113
96	543	0	118
96	567	0	118
96	586	0	118
96	588	0	118
96	592	0	119
96	722	0	120
96	762	0	120
96	818	0	120
96	1936	0	137
96	1942	0	137
96	2654	0	138
96	2778	0	140
96	3576	0	140
96	4112	0	143
96	4432	0	143
96	4840	0	143
96	5232	0	143
97	265	0	98
97	325	0	107
97	528	0	118
97	540	0	118
97	1012	0	124
97	1030	0	124
97	1104	0	124
97	1116	0	124
97	1242	0	124
97	1316	0	133
97	1454	0	137
97	1466	0	137
97	1674	0	137
97	1792	0	137
97	2444	0	138
97	2466	0	138
97	2730	0	140
97	2768	0	140
97	2968	0	140
97	2972	0	140
97	3212	0	140
97	3356	0	140
97	3396	0	140
97	3976	0	143
97	4692	0	143
97	5184	0	143
97	5192	0	143
97	5292	0	143
97	6064	0	143
97	6112	0	143
97	6244	0	143
97	6280	0	143
97	6312	0	143
97	6400	0	143
97	6660	0	143
98	268	0	99
98	427	0	113
98	442	0	113
98	466	0	115
98	552	0	118
98	570	0	118
98	809	0	120
98	811	0	120
98	821	0	120
98	884	0	121
98	895	0	121
98	942	0	123
98	954	0	123
98	969	0	123
98	1046	0	124
98	1074	0	124
98	1270	0	133
98	1322	0	133
98	1714	0	137
98	1800	0	137
98	2004	0	137
98	2056	0	137
98	2076	0	137
98	2344	0	138
98	2494	0	138
98	2612	0	138
98	2742	0	140
98	2874	0	140
98	3036	0	140
98	3524	0	140
98	3780	0	143
98	3852	0	143
98	4092	0	143
98	4216	0	143
98	4788	0	143
98	4812	0	143
98	4860	0	143
98	5060	0	143
98	5160	0	143
98	5244	0	143
98	5424	0	143
98	6048	0	143
98	6056	0	143
98	6080	0	143
98	6120	0	143
98	6388	0	143
98	6548	0	143
98	6648	0	143
98	6704	0	143
99	274	0	100
99	316	0	107
99	353	0	109
99	359	0	109
99	421	0	113
99	800	0	120
99	897	0	121
99	946	0	123
99	1084	0	124
99	1310	0	133
99	1954	0	137
99	2350	0	138
99	2748	0	140
99	2784	0	140
99	2962	0	140
99	3120	0	140
99	3244	0	140
99	3432	0	140
99	4128	0	143
99	4228	0	143
99	4688	0	143
99	4772	0	143
99	4920	0	143
99	4928	0	143
99	5148	0	143
99	5448	0	143
99	5856	0	143
100	277	0	101
100	878	0	121
100	1624	0	137
100	1732	0	137
100	2028	0	137
100	2114	0	138
100	2196	0	138
100	2596	0	138
100	2618	0	138
100	2830	0	140
100	3788	0	143
100	3988	0	143
100	4464	0	143
100	4512	0	143
100	4564	0	143
100	4900	0	143
100	5056	0	143
100	5312	0	143
100	5624	0	143
100	6116	0	143
100	6340	0	143
100	6544	0	143
101	281	0	102
101	291	0	104
101	394	0	112
101	461	0	115
101	511	0	118
101	650	0	120
101	724	0	120
101	763	0	120
101	1482	0	137
101	1740	0	137
101	2476	0	138
101	2480	0	138
101	2512	0	138
101	2516	0	138
101	2520	0	138
101	5172	0	143
101	6672	0	143
102	289	0	103
102	403	0	113
102	457	0	113
102	547	0	118
102	587	0	118
102	626	0	120
102	2938	0	140
102	2982	0	140
102	3612	0	140
102	5176	0	143
102	5256	0	143
102	6264	0	143
102	6284	0	143
102	6792	0	143
103	290	0	104
103	404	0	113
103	437	0	113
103	548	0	118
103	584	0	118
103	819	0	120
103	1938	0	137
103	2518	0	138
103	2774	0	140
103	5936	0	143
104	292	0	105
104	307	0	107
104	407	0	113
104	541	0	118
104	563	0	118
104	568	0	118
104	628	0	120
104	1106	0	124
104	1484	0	137
104	2050	0	137
104	2090	0	137
104	2144	0	138
104	2436	0	138
104	2482	0	138
104	2650	0	138
104	2658	0	138
104	2710	0	140
104	2890	0	140
104	2928	0	140
104	2950	0	140
104	3312	0	140
104	3344	0	140
104	3776	0	143
104	4000	0	143
104	4136	0	143
104	5168	0	143
104	5288	0	143
104	5668	0	143
104	6152	0	143
104	6668	0	143
105	294	0	106
105	356	0	109
105	374	0	110
105	377	0	110
105	469	0	115
105	476	0	117
105	481	0	118
105	664	0	120
105	739	0	120
105	1388	0	134
105	1432	0	137
105	1440	0	137
105	1444	0	137
105	1506	0	137
105	2272	0	138
105	2294	0	138
105	3456	0	140
105	3812	0	143
105	3828	0	143
105	3880	0	143
105	5092	0	143
105	5796	0	143
105	5896	0	143
105	6172	0	143
105	6560	0	143
105	6712	0	143
106	298	0	107
106	825	0	120
106	880	0	121
106	955	0	123
106	1142	0	124
106	1290	0	133
106	1298	0	133
106	1318	0	133
106	1438	0	137
106	1528	0	137
106	1658	0	137
106	1700	0	137
106	1770	0	137
106	1998	0	137
106	2038	0	137
106	2252	0	138
106	2288	0	138
106	2380	0	138
106	2412	0	138
106	2458	0	138
106	2588	0	138
106	3104	0	140
106	3672	0	140
106	4708	0	143
106	6128	0	143
106	6572	0	143
106	6608	0	143
106	6756	0	143
107	335	0	108
107	399	0	113
107	549	0	118
107	633	0	120
107	648	0	120
107	704	0	120
107	720	0	120
107	725	0	120
107	764	0	120
107	817	0	120
107	1112	0	124
107	1478	0	137
107	2020	0	137
107	2220	0	138
107	2488	0	138
107	2510	0	138
107	2652	0	138
107	2934	0	140
107	2976	0	140
107	3584	0	140
107	4140	0	143
107	5224	0	143
107	6240	0	143
107	6740	0	143
108	339	0	109
108	687	0	120
108	721	0	120
108	823	0	120
108	931	0	123
108	1672	0	137
108	1746	0	137
108	2906	0	140
108	2980	0	140
108	3604	0	140
108	4008	0	143
109	361	0	110
109	467	0	115
109	539	0	118
109	679	0	120
109	808	0	120
109	990	0	124
109	1064	0	124
109	1086	0	124
109	1280	0	133
109	1972	0	137
109	2956	0	140
109	3400	0	140
109	3488	0	140
109	4064	0	143
109	4944	0	143
109	6324	0	143
109	6580	0	143
110	380	0	111
110	1496	0	137
110	1710	0	137
110	1778	0	137
110	2244	0	138
110	2554	0	138
110	2560	0	138
110	2790	0	140
110	3164	0	140
110	3820	0	143
110	4184	0	143
110	5140	0	143
110	6716	0	143
110	6848	0	143
111	383	0	112
111	1442	0	137
111	1504	0	137
111	3136	0	140
111	3160	0	140
111	3808	0	143
111	4532	0	143
111	4656	0	143
111	5100	0	143
112	396	0	113
112	402	0	113
112	405	0	113
112	649	0	120
112	1940	0	137
112	2772	0	140
112	2776	0	140
112	2936	0	140
112	6788	0	143
113	459	0	114
113	510	0	118
113	591	0	119
113	1670	0	137
113	1744	0	137
113	2358	0	138
113	2942	0	140
113	3572	0	140
114	460	0	115
114	766	0	120
114	2018	0	137
114	4204	0	143
114	4968	0	143
115	472	0	116
115	474	0	117
115	665	0	120
115	1378	0	133
115	1382	0	134
115	1402	0	137
115	2310	0	138
115	6820	0	143
115	6864	0	143
116	473	0	117
117	477	0	118
117	1226	0	124
117	1774	0	137
117	2304	0	138
117	2558	0	138
117	3140	0	140
117	3804	0	143
117	4536	0	143
117	4640	0	143
117	4648	0	143
118	590	0	119
118	629	0	120
118	2360	0	138
118	2434	0	138
118	2908	0	140
118	2926	0	140
118	2944	0	140
118	4852	0	143
118	6524	0	143
119	599	0	120
119	614	0	120
119	979	0	124
120	837	0	121
120	1544	0	137
120	1586	0	137
120	2632	0	138
120	2640	0	138
120	5944	0	143
121	915	0	122
121	1164	0	124
121	1546	0	137
121	1588	0	137
121	1840	0	137
121	1892	0	137
121	1898	0	137
121	2108	0	138
121	2622	0	138
121	2630	0	138
121	3068	0	140
121	4324	0	143
121	4476	0	143
121	5964	0	143
121	5996	0	143
121	6472	0	143
122	920	0	123
123	971	0	124
123	1538	0	137
123	1550	0	137
123	1580	0	137
123	2100	0	137
123	2628	0	138
123	2634	0	138
123	2644	0	138
123	2842	0	140
123	4492	0	143
123	5940	0	143
123	5968	0	143
124	1380	0	134
124	1400	0	137
124	6868	0	143
125	1394	0	135
126	1396	0	136
127	1398	0	137
128	2102	0	138
128	6012	0	143
129	2910	0	140
129	4948	0	143
129	4976	0	143
130	2912	0	140
131	2914	0	140
131	2918	0	140
131	2922	0	140
131	4956	0	143
132	2916	0	140
133	2920	0	140
134	2924	0	140
134	4964	0	143
135	4952	0	143
135	4960	0	143
136	4972	0	143
137	6872	0	144
138	6876	0	145

