version 3
run General-441-20250917-22:37:11-66691
attr configname General
attr datetime 20250917-22:37:11
attr datetimef 20250917-223711
attr experiment General
attr inifile omnetpp.ini
attr iterationvars ""
attr iterationvarsd ""
attr iterationvarsf ""
attr measurement ""
attr network RGG
attr processid 66691
attr repetition 441
attr replication #441
attr resultdir results
attr runnumber 441
attr seedset 441
config network RGG
config seed-set 441
config num-rngs 1
config sim-time-limit 10s
config repeat 500
config **.node[*].xCor "uniform(0.0, 1.0, 0)"
config **.node[*].yCor "uniform(0.0, 1.0, 0)"
config *.numWalkers 1
config *.numNodes 100
config *.enableDuplication true
config *.rc 0.25

par RGG.node[0].port$o[0].channel typename "\"ned.IdealChannel\""
par RGG.node[5].port$o[0].channel typename "\"ned.IdealChannel\""
par RGG.node[0].port$o[1].channel typename "\"ned.IdealChannel\""
par RGG.node[32].port$o[0].channel typename "\"ned.IdealChannel\""
par RGG.node[0].port$o[2].channel typename "\"ned.IdealChannel\""
par RGG.node[51].port$o[0].channel typename "\"ned.IdealChannel\""
par RGG.node[0].port$o[3].channel typename "\"ned.IdealChannel\""
par RGG.node[65].port$o[0].channel typename "\"ned.IdealChannel\""
par RGG.node[0].port$o[4].channel typename "\"ned.IdealChannel\""
par RGG.node[93].port$o[0].channel typename "\"ned.IdealChannel\""
par RGG.node[1].port$o[0].channel typename "\"ned.IdealChannel\""
par RGG.node[9].port$o[0].channel typename "\"ned.IdealChannel\""
par RGG.node[1].port$o[1].channel typename "\"ned.IdealChannel\""
par RGG.node[18].port$o[0].channel typename "\"ned.IdealChannel\""
par RGG.node[1].port$o[2].channel typename "\"ned.IdealChannel\""
par RGG.node[22].port$o[0].channel typename "\"ned.IdealChannel\""
par RGG.node[1].port$o[3].channel typename "\"ned.IdealChannel\""
par RGG.node[27].port$o[0].channel typename "\"ned.IdealChannel\""
par RGG.node[1].port$o[4].channel typename "\"ned.IdealChannel\""
par RGG.node[30].port$o[0].channel typename "\"ned.IdealChannel\""
par RGG.node[1].port$o[5].channel typename "\"ned.IdealChannel\""
par RGG.node[48].port$o[0].channel typename "\"ned.IdealChannel\""
par RGG.node[1].port$o[6].channel typename "\"ned.IdealChannel\""
par RGG.node[53].port$o[0].channel typename "\"ned.IdealChannel\""
par RGG.node[1].port$o[7].channel typename "\"ned.IdealChannel\""
par RGG.node[56].port$o[0].channel typename "\"ned.IdealChannel\""
par RGG.node[1].port$o[8].channel typename "\"ned.IdealChannel\""
par RGG.node[61].port$o[0].channel typename "\"ned.IdealChannel\""
par RGG.node[1].port$o[9].channel typename "\"ned.IdealChannel\""
par RGG.node[66].port$o[0].channel typename "\"ned.IdealChannel\""
par RGG.node[1].port$o[10].channel typename "\"ned.IdealChannel\""
par RGG.node[84].port$o[0].channel typename "\"ned.IdealChannel\""
par RGG.node[1].port$o[11].channel typename "\"ned.IdealChannel\""
par RGG.node[85].port$o[0].channel typename "\"ned.IdealChannel\""
par RGG.node[1].port$o[12].channel typename "\"ned.IdealChannel\""
par RGG.node[91].port$o[0].channel typename "\"ned.IdealChannel\""
par RGG.node[1].port$o[13].channel typename "\"ned.IdealChannel\""
par RGG.node[94].port$o[0].channel typename "\"ned.IdealChannel\""
par RGG.node[1].port$o[14].channel typename "\"ned.IdealChannel\""
par RGG.node[98].port$o[0].channel typename "\"ned.IdealChannel\""
par RGG.node[2].port$o[0].channel typename "\"ned.IdealChannel\""
par RGG.node[8].port$o[0].channel typename "\"ned.IdealChannel\""
par RGG.node[2].port$o[1].channel typename "\"ned.IdealChannel\""
par RGG.node[19].port$o[0].channel typename "\"ned.IdealChannel\""
par RGG.node[2].port$o[2].channel typename "\"ned.IdealChannel\""
par RGG.node[30].port$o[1].channel typename "\"ned.IdealChannel\""
par RGG.node[2].port$o[3].channel typename "\"ned.IdealChannel\""
par RGG.node[38].port$o[0].channel typename "\"ned.IdealChannel\""
par RGG.node[2].port$o[4].channel typename "\"ned.IdealChannel\""
par RGG.node[55].port$o[0].channel typename "\"ned.IdealChannel\""
par RGG.node[3].port$o[0].channel typename "\"ned.IdealChannel\""
par RGG.node[14].port$o[0].channel typename "\"ned.IdealChannel\""
par RGG.node[3].port$o[1].channel typename "\"ned.IdealChannel\""
par RGG.node[18].port$o[1].channel typename "\"ned.IdealChannel\""
par RGG.node[3].port$o[2].channel typename "\"ned.IdealChannel\""
par RGG.node[24].port$o[0].channel typename "\"ned.IdealChannel\""
par RGG.node[3].port$o[3].channel typename "\"ned.IdealChannel\""
par RGG.node[27].port$o[1].channel typename "\"ned.IdealChannel\""
par RGG.node[3].port$o[4].channel typename "\"ned.IdealChannel\""
par RGG.node[34].port$o[0].channel typename "\"ned.IdealChannel\""
par RGG.node[3].port$o[5].channel typename "\"ned.IdealChannel\""
par RGG.node[53].port$o[1].channel typename "\"ned.IdealChannel\""
par RGG.node[3].port$o[6].channel typename "\"ned.IdealChannel\""
par RGG.node[60].port$o[0].channel typename "\"ned.IdealChannel\""
par RGG.node[3].port$o[7].channel typename "\"ned.IdealChannel\""
par RGG.node[61].port$o[1].channel typename "\"ned.IdealChannel\""
par RGG.node[3].port$o[8].channel typename "\"ned.IdealChannel\""
par RGG.node[62].port$o[0].channel typename "\"ned.IdealChannel\""
par RGG.node[3].port$o[9].channel typename "\"ned.IdealChannel\""
par RGG.node[73].port$o[0].channel typename "\"ned.IdealChannel\""
par RGG.node[3].port$o[10].channel typename "\"ned.IdealChannel\""
par RGG.node[85].port$o[1].channel typename "\"ned.IdealChannel\""
par RGG.node[3].port$o[11].channel typename "\"ned.IdealChannel\""
par RGG.node[91].port$o[1].channel typename "\"ned.IdealChannel\""
par RGG.node[3].port$o[12].channel typename "\"ned.IdealChannel\""
par RGG.node[99].port$o[0].channel typename "\"ned.IdealChannel\""
par RGG.node[4].port$o[0].channel typename "\"ned.IdealChannel\""
par RGG.node[5].port$o[1].channel typename "\"ned.IdealChannel\""
par RGG.node[4].port$o[1].channel typename "\"ned.IdealChannel\""
par RGG.node[10].port$o[0].channel typename "\"ned.IdealChannel\""
par RGG.node[4].port$o[2].channel typename "\"ned.IdealChannel\""
par RGG.node[15].port$o[0].channel typename "\"ned.IdealChannel\""
par RGG.node[4].port$o[3].channel typename "\"ned.IdealChannel\""
par RGG.node[17].port$o[0].channel typename "\"ned.IdealChannel\""
par RGG.node[4].port$o[4].channel typename "\"ned.IdealChannel\""
par RGG.node[20].port$o[0].channel typename "\"ned.IdealChannel\""
par RGG.node[4].port$o[5].channel typename "\"ned.IdealChannel\""
par RGG.node[23].port$o[0].channel typename "\"ned.IdealChannel\""
par RGG.node[4].port$o[6].channel typename "\"ned.IdealChannel\""
par RGG.node[29].port$o[0].channel typename "\"ned.IdealChannel\""
par RGG.node[4].port$o[7].channel typename "\"ned.IdealChannel\""
par RGG.node[32].port$o[1].channel typename "\"ned.IdealChannel\""
par RGG.node[4].port$o[8].channel typename "\"ned.IdealChannel\""
par RGG.node[33].port$o[0].channel typename "\"ned.IdealChannel\""
par RGG.node[4].port$o[9].channel typename "\"ned.IdealChannel\""
par RGG.node[43].port$o[0].channel typename "\"ned.IdealChannel\""
par RGG.node[4].port$o[10].channel typename "\"ned.IdealChannel\""
par RGG.node[44].port$o[0].channel typename "\"ned.IdealChannel\""
par RGG.node[4].port$o[11].channel typename "\"ned.IdealChannel\""
par RGG.node[50].port$o[0].channel typename "\"ned.IdealChannel\""
par RGG.node[4].port$o[12].channel typename "\"ned.IdealChannel\""
par RGG.node[51].port$o[1].channel typename "\"ned.IdealChannel\""
par RGG.node[4].port$o[13].channel typename "\"ned.IdealChannel\""
par RGG.node[52].port$o[0].channel typename "\"ned.IdealChannel\""
par RGG.node[4].port$o[14].channel typename "\"ned.IdealChannel\""
par RGG.node[58].port$o[0].channel typename "\"ned.IdealChannel\""
par RGG.node[4].port$o[15].channel typename "\"ned.IdealChannel\""
par RGG.node[65].port$o[1].channel typename "\"ned.IdealChannel\""
par RGG.node[4].port$o[16].channel typename "\"ned.IdealChannel\""
par RGG.node[71].port$o[0].channel typename "\"ned.IdealChannel\""
par RGG.node[4].port$o[17].channel typename "\"ned.IdealChannel\""
par RGG.node[76].port$o[0].channel typename "\"ned.IdealChannel\""
par RGG.node[4].port$o[18].channel typename "\"ned.IdealChannel\""
par RGG.node[80].port$o[0].channel typename "\"ned.IdealChannel\""
par RGG.node[4].port$o[19].channel typename "\"ned.IdealChannel\""
par RGG.node[93].port$o[1].channel typename "\"ned.IdealChannel\""
par RGG.node[5].port$o[2].channel typename "\"ned.IdealChannel\""
par RGG.node[15].port$o[1].channel typename "\"ned.IdealChannel\""
par RGG.node[5].port$o[3].channel typename "\"ned.IdealChannel\""
par RGG.node[20].port$o[1].channel typename "\"ned.IdealChannel\""
par RGG.node[5].port$o[4].channel typename "\"ned.IdealChannel\""
par RGG.node[32].port$o[2].channel typename "\"ned.IdealChannel\""
par RGG.node[5].port$o[5].channel typename "\"ned.IdealChannel\""
par RGG.node[43].port$o[1].channel typename "\"ned.IdealChannel\""
par RGG.node[5].port$o[6].channel typename "\"ned.IdealChannel\""
par RGG.node[44].port$o[1].channel typename "\"ned.IdealChannel\""
par RGG.node[5].port$o[7].channel typename "\"ned.IdealChannel\""
par RGG.node[50].port$o[1].channel typename "\"ned.IdealChannel\""
par RGG.node[5].port$o[8].channel typename "\"ned.IdealChannel\""
par RGG.node[51].port$o[2].channel typename "\"ned.IdealChannel\""
par RGG.node[5].port$o[9].channel typename "\"ned.IdealChannel\""
par RGG.node[52].port$o[1].channel typename "\"ned.IdealChannel\""
par RGG.node[5].port$o[10].channel typename "\"ned.IdealChannel\""
par RGG.node[65].port$o[2].channel typename "\"ned.IdealChannel\""
par RGG.node[5].port$o[11].channel typename "\"ned.IdealChannel\""
par RGG.node[67].port$o[0].channel typename "\"ned.IdealChannel\""
par RGG.node[5].port$o[12].channel typename "\"ned.IdealChannel\""
par RGG.node[71].port$o[1].channel typename "\"ned.IdealChannel\""
par RGG.node[5].port$o[13].channel typename "\"ned.IdealChannel\""
par RGG.node[93].port$o[2].channel typename "\"ned.IdealChannel\""
par RGG.node[6].port$o[0].channel typename "\"ned.IdealChannel\""
par RGG.node[11].port$o[0].channel typename "\"ned.IdealChannel\""
par RGG.node[6].port$o[1].channel typename "\"ned.IdealChannel\""
par RGG.node[12].port$o[0].channel typename "\"ned.IdealChannel\""
par RGG.node[6].port$o[2].channel typename "\"ned.IdealChannel\""
par RGG.node[28].port$o[0].channel typename "\"ned.IdealChannel\""
par RGG.node[6].port$o[3].channel typename "\"ned.IdealChannel\""
par RGG.node[31].port$o[0].channel typename "\"ned.IdealChannel\""
par RGG.node[6].port$o[4].channel typename "\"ned.IdealChannel\""
par RGG.node[41].port$o[0].channel typename "\"ned.IdealChannel\""
par RGG.node[6].port$o[5].channel typename "\"ned.IdealChannel\""
par RGG.node[42].port$o[0].channel typename "\"ned.IdealChannel\""
par RGG.node[6].port$o[6].channel typename "\"ned.IdealChannel\""
par RGG.node[49].port$o[0].channel typename "\"ned.IdealChannel\""
par RGG.node[6].port$o[7].channel typename "\"ned.IdealChannel\""
par RGG.node[64].port$o[0].channel typename "\"ned.IdealChannel\""
par RGG.node[6].port$o[8].channel typename "\"ned.IdealChannel\""
par RGG.node[77].port$o[0].channel typename "\"ned.IdealChannel\""
par RGG.node[6].port$o[9].channel typename "\"ned.IdealChannel\""
par RGG.node[78].port$o[0].channel typename "\"ned.IdealChannel\""
par RGG.node[6].port$o[10].channel typename "\"ned.IdealChannel\""
par RGG.node[79].port$o[0].channel typename "\"ned.IdealChannel\""
par RGG.node[6].port$o[11].channel typename "\"ned.IdealChannel\""
par RGG.node[82].port$o[0].channel typename "\"ned.IdealChannel\""
par RGG.node[6].port$o[12].channel typename "\"ned.IdealChannel\""
par RGG.node[83].port$o[0].channel typename "\"ned.IdealChannel\""
par RGG.node[6].port$o[13].channel typename "\"ned.IdealChannel\""
par RGG.node[86].port$o[0].channel typename "\"ned.IdealChannel\""
par RGG.node[6].port$o[14].channel typename "\"ned.IdealChannel\""
par RGG.node[96].port$o[0].channel typename "\"ned.IdealChannel\""
par RGG.node[7].port$o[0].channel typename "\"ned.IdealChannel\""
par RGG.node[8].port$o[1].channel typename "\"ned.IdealChannel\""
par RGG.node[7].port$o[1].channel typename "\"ned.IdealChannel\""
par RGG.node[21].port$o[0].channel typename "\"ned.IdealChannel\""
par RGG.node[7].port$o[2].channel typename "\"ned.IdealChannel\""
par RGG.node[26].port$o[0].channel typename "\"ned.IdealChannel\""
par RGG.node[7].port$o[3].channel typename "\"ned.IdealChannel\""
par RGG.node[38].port$o[1].channel typename "\"ned.IdealChannel\""
par RGG.node[7].port$o[4].channel typename "\"ned.IdealChannel\""
par RGG.node[39].port$o[0].channel typename "\"ned.IdealChannel\""
par RGG.node[7].port$o[5].channel typename "\"ned.IdealChannel\""
par RGG.node[45].port$o[0].channel typename "\"ned.IdealChannel\""
par RGG.node[7].port$o[6].channel typename "\"ned.IdealChannel\""
par RGG.node[54].port$o[0].channel typename "\"ned.IdealChannel\""
par RGG.node[7].port$o[7].channel typename "\"ned.IdealChannel\""
par RGG.node[56].port$o[1].channel typename "\"ned.IdealChannel\""
par RGG.node[7].port$o[8].channel typename "\"ned.IdealChannel\""
par RGG.node[66].port$o[1].channel typename "\"ned.IdealChannel\""
par RGG.node[7].port$o[9].channel typename "\"ned.IdealChannel\""
par RGG.node[72].port$o[0].channel typename "\"ned.IdealChannel\""
par RGG.node[7].port$o[10].channel typename "\"ned.IdealChannel\""
par RGG.node[81].port$o[0].channel typename "\"ned.IdealChannel\""
par RGG.node[7].port$o[11].channel typename "\"ned.IdealChannel\""
par RGG.node[84].port$o[1].channel typename "\"ned.IdealChannel\""
par RGG.node[7].port$o[12].channel typename "\"ned.IdealChannel\""
par RGG.node[87].port$o[0].channel typename "\"ned.IdealChannel\""
par RGG.node[7].port$o[13].channel typename "\"ned.IdealChannel\""
par RGG.node[89].port$o[0].channel typename "\"ned.IdealChannel\""
par RGG.node[7].port$o[14].channel typename "\"ned.IdealChannel\""
par RGG.node[90].port$o[0].channel typename "\"ned.IdealChannel\""
par RGG.node[7].port$o[15].channel typename "\"ned.IdealChannel\""
par RGG.node[95].port$o[0].channel typename "\"ned.IdealChannel\""
par RGG.node[7].port$o[16].channel typename "\"ned.IdealChannel\""
par RGG.node[97].port$o[0].channel typename "\"ned.IdealChannel\""
par RGG.node[7].port$o[17].channel typename "\"ned.IdealChannel\""
par RGG.node[98].port$o[1].channel typename "\"ned.IdealChannel\""
par RGG.node[8].port$o[2].channel typename "\"ned.IdealChannel\""
par RGG.node[19].port$o[1].channel typename "\"ned.IdealChannel\""
par RGG.node[8].port$o[3].channel typename "\"ned.IdealChannel\""
par RGG.node[21].port$o[1].channel typename "\"ned.IdealChannel\""
par RGG.node[8].port$o[4].channel typename "\"ned.IdealChannel\""
par RGG.node[26].port$o[1].channel typename "\"ned.IdealChannel\""
par RGG.node[8].port$o[5].channel typename "\"ned.IdealChannel\""
par RGG.node[38].port$o[2].channel typename "\"ned.IdealChannel\""
par RGG.node[8].port$o[6].channel typename "\"ned.IdealChannel\""
par RGG.node[54].port$o[1].channel typename "\"ned.IdealChannel\""
par RGG.node[8].port$o[7].channel typename "\"ned.IdealChannel\""
par RGG.node[55].port$o[1].channel typename "\"ned.IdealChannel\""
par RGG.node[8].port$o[8].channel typename "\"ned.IdealChannel\""
par RGG.node[56].port$o[2].channel typename "\"ned.IdealChannel\""
par RGG.node[8].port$o[9].channel typename "\"ned.IdealChannel\""
par RGG.node[81].port$o[1].channel typename "\"ned.IdealChannel\""
par RGG.node[8].port$o[10].channel typename "\"ned.IdealChannel\""
par RGG.node[84].port$o[2].channel typename "\"ned.IdealChannel\""
par RGG.node[8].port$o[11].channel typename "\"ned.IdealChannel\""
par RGG.node[87].port$o[1].channel typename "\"ned.IdealChannel\""
par RGG.node[8].port$o[12].channel typename "\"ned.IdealChannel\""
par RGG.node[90].port$o[1].channel typename "\"ned.IdealChannel\""
par RGG.node[8].port$o[13].channel typename "\"ned.IdealChannel\""
par RGG.node[95].port$o[1].channel typename "\"ned.IdealChannel\""
par RGG.node[8].port$o[14].channel typename "\"ned.IdealChannel\""
par RGG.node[97].port$o[1].channel typename "\"ned.IdealChannel\""
par RGG.node[8].port$o[15].channel typename "\"ned.IdealChannel\""
par RGG.node[98].port$o[2].channel typename "\"ned.IdealChannel\""
par RGG.node[9].port$o[1].channel typename "\"ned.IdealChannel\""
par RGG.node[18].port$o[2].channel typename "\"ned.IdealChannel\""
par RGG.node[9].port$o[2].channel typename "\"ned.IdealChannel\""
par RGG.node[22].port$o[1].channel typename "\"ned.IdealChannel\""
par RGG.node[9].port$o[3].channel typename "\"ned.IdealChannel\""
par RGG.node[27].port$o[2].channel typename "\"ned.IdealChannel\""
par RGG.node[9].port$o[4].channel typename "\"ned.IdealChannel\""
par RGG.node[30].port$o[2].channel typename "\"ned.IdealChannel\""
par RGG.node[9].port$o[5].channel typename "\"ned.IdealChannel\""
par RGG.node[48].port$o[1].channel typename "\"ned.IdealChannel\""
par RGG.node[9].port$o[6].channel typename "\"ned.IdealChannel\""
par RGG.node[53].port$o[2].channel typename "\"ned.IdealChannel\""
par RGG.node[9].port$o[7].channel typename "\"ned.IdealChannel\""
par RGG.node[56].port$o[3].channel typename "\"ned.IdealChannel\""
par RGG.node[9].port$o[8].channel typename "\"ned.IdealChannel\""
par RGG.node[61].port$o[2].channel typename "\"ned.IdealChannel\""
par RGG.node[9].port$o[9].channel typename "\"ned.IdealChannel\""
par RGG.node[66].port$o[2].channel typename "\"ned.IdealChannel\""
par RGG.node[9].port$o[10].channel typename "\"ned.IdealChannel\""
par RGG.node[84].port$o[3].channel typename "\"ned.IdealChannel\""
par RGG.node[9].port$o[11].channel typename "\"ned.IdealChannel\""
par RGG.node[85].port$o[2].channel typename "\"ned.IdealChannel\""
par RGG.node[9].port$o[12].channel typename "\"ned.IdealChannel\""
par RGG.node[91].port$o[2].channel typename "\"ned.IdealChannel\""
par RGG.node[9].port$o[13].channel typename "\"ned.IdealChannel\""
par RGG.node[94].port$o[1].channel typename "\"ned.IdealChannel\""
par RGG.node[9].port$o[14].channel typename "\"ned.IdealChannel\""
par RGG.node[98].port$o[3].channel typename "\"ned.IdealChannel\""
par RGG.node[10].port$o[1].channel typename "\"ned.IdealChannel\""
par RGG.node[13].port$o[0].channel typename "\"ned.IdealChannel\""
par RGG.node[10].port$o[2].channel typename "\"ned.IdealChannel\""
par RGG.node[15].port$o[2].channel typename "\"ned.IdealChannel\""
par RGG.node[10].port$o[3].channel typename "\"ned.IdealChannel\""
par RGG.node[17].port$o[1].channel typename "\"ned.IdealChannel\""
par RGG.node[10].port$o[4].channel typename "\"ned.IdealChannel\""
par RGG.node[20].port$o[2].channel typename "\"ned.IdealChannel\""
par RGG.node[10].port$o[5].channel typename "\"ned.IdealChannel\""
par RGG.node[23].port$o[1].channel typename "\"ned.IdealChannel\""
par RGG.node[10].port$o[6].channel typename "\"ned.IdealChannel\""
par RGG.node[25].port$o[0].channel typename "\"ned.IdealChannel\""
par RGG.node[10].port$o[7].channel typename "\"ned.IdealChannel\""
par RGG.node[29].port$o[1].channel typename "\"ned.IdealChannel\""
par RGG.node[10].port$o[8].channel typename "\"ned.IdealChannel\""
par RGG.node[33].port$o[1].channel typename "\"ned.IdealChannel\""
par RGG.node[10].port$o[9].channel typename "\"ned.IdealChannel\""
par RGG.node[36].port$o[0].channel typename "\"ned.IdealChannel\""
par RGG.node[10].port$o[10].channel typename "\"ned.IdealChannel\""
par RGG.node[40].port$o[0].channel typename "\"ned.IdealChannel\""
par RGG.node[10].port$o[11].channel typename "\"ned.IdealChannel\""
par RGG.node[44].port$o[2].channel typename "\"ned.IdealChannel\""
par RGG.node[10].port$o[12].channel typename "\"ned.IdealChannel\""
par RGG.node[57].port$o[0].channel typename "\"ned.IdealChannel\""
par RGG.node[10].port$o[13].channel typename "\"ned.IdealChannel\""
par RGG.node[58].port$o[1].channel typename "\"ned.IdealChannel\""
par RGG.node[10].port$o[14].channel typename "\"ned.IdealChannel\""
par RGG.node[69].port$o[0].channel typename "\"ned.IdealChannel\""
par RGG.node[10].port$o[15].channel typename "\"ned.IdealChannel\""
par RGG.node[70].port$o[0].channel typename "\"ned.IdealChannel\""
par RGG.node[10].port$o[16].channel typename "\"ned.IdealChannel\""
par RGG.node[74].port$o[0].channel typename "\"ned.IdealChannel\""
par RGG.node[10].port$o[17].channel typename "\"ned.IdealChannel\""
par RGG.node[76].port$o[1].channel typename "\"ned.IdealChannel\""
par RGG.node[10].port$o[18].channel typename "\"ned.IdealChannel\""
par RGG.node[80].port$o[1].channel typename "\"ned.IdealChannel\""
par RGG.node[11].port$o[1].channel typename "\"ned.IdealChannel\""
par RGG.node[12].port$o[1].channel typename "\"ned.IdealChannel\""
par RGG.node[11].port$o[2].channel typename "\"ned.IdealChannel\""
par RGG.node[17].port$o[2].channel typename "\"ned.IdealChannel\""
par RGG.node[11].port$o[3].channel typename "\"ned.IdealChannel\""
par RGG.node[28].port$o[1].channel typename "\"ned.IdealChannel\""
par RGG.node[11].port$o[4].channel typename "\"ned.IdealChannel\""
par RGG.node[31].port$o[1].channel typename "\"ned.IdealChannel\""
par RGG.node[11].port$o[5].channel typename "\"ned.IdealChannel\""
par RGG.node[33].port$o[2].channel typename "\"ned.IdealChannel\""
par RGG.node[11].port$o[6].channel typename "\"ned.IdealChannel\""
par RGG.node[41].port$o[1].channel typename "\"ned.IdealChannel\""
par RGG.node[11].port$o[7].channel typename "\"ned.IdealChannel\""
par RGG.node[43].port$o[2].channel typename "\"ned.IdealChannel\""
par RGG.node[11].port$o[8].channel typename "\"ned.IdealChannel\""
par RGG.node[49].port$o[1].channel typename "\"ned.IdealChannel\""
par RGG.node[11].port$o[9].channel typename "\"ned.IdealChannel\""
par RGG.node[50].port$o[2].channel typename "\"ned.IdealChannel\""
par RGG.node[11].port$o[10].channel typename "\"ned.IdealChannel\""
par RGG.node[57].port$o[1].channel typename "\"ned.IdealChannel\""
par RGG.node[11].port$o[11].channel typename "\"ned.IdealChannel\""
par RGG.node[64].port$o[1].channel typename "\"ned.IdealChannel\""
par RGG.node[11].port$o[12].channel typename "\"ned.IdealChannel\""
par RGG.node[71].port$o[2].channel typename "\"ned.IdealChannel\""
par RGG.node[11].port$o[13].channel typename "\"ned.IdealChannel\""
par RGG.node[74].port$o[1].channel typename "\"ned.IdealChannel\""
par RGG.node[11].port$o[14].channel typename "\"ned.IdealChannel\""
par RGG.node[77].port$o[1].channel typename "\"ned.IdealChannel\""
par RGG.node[11].port$o[15].channel typename "\"ned.IdealChannel\""
par RGG.node[78].port$o[1].channel typename "\"ned.IdealChannel\""
par RGG.node[11].port$o[16].channel typename "\"ned.IdealChannel\""
par RGG.node[79].port$o[1].channel typename "\"ned.IdealChannel\""
par RGG.node[11].port$o[17].channel typename "\"ned.IdealChannel\""
par RGG.node[82].port$o[1].channel typename "\"ned.IdealChannel\""
par RGG.node[11].port$o[18].channel typename "\"ned.IdealChannel\""
par RGG.node[83].port$o[1].channel typename "\"ned.IdealChannel\""
par RGG.node[11].port$o[19].channel typename "\"ned.IdealChannel\""
par RGG.node[86].port$o[1].channel typename "\"ned.IdealChannel\""
par RGG.node[11].port$o[20].channel typename "\"ned.IdealChannel\""
par RGG.node[96].port$o[1].channel typename "\"ned.IdealChannel\""
par RGG.node[12].port$o[2].channel typename "\"ned.IdealChannel\""
par RGG.node[17].port$o[3].channel typename "\"ned.IdealChannel\""
par RGG.node[12].port$o[3].channel typename "\"ned.IdealChannel\""
par RGG.node[23].port$o[2].channel typename "\"ned.IdealChannel\""
par RGG.node[12].port$o[4].channel typename "\"ned.IdealChannel\""
par RGG.node[28].port$o[2].channel typename "\"ned.IdealChannel\""
par RGG.node[12].port$o[5].channel typename "\"ned.IdealChannel\""
par RGG.node[31].port$o[2].channel typename "\"ned.IdealChannel\""
par RGG.node[12].port$o[6].channel typename "\"ned.IdealChannel\""
par RGG.node[33].port$o[3].channel typename "\"ned.IdealChannel\""
par RGG.node[12].port$o[7].channel typename "\"ned.IdealChannel\""
par RGG.node[43].port$o[3].channel typename "\"ned.IdealChannel\""
par RGG.node[12].port$o[8].channel typename "\"ned.IdealChannel\""
par RGG.node[50].port$o[3].channel typename "\"ned.IdealChannel\""
par RGG.node[12].port$o[9].channel typename "\"ned.IdealChannel\""
par RGG.node[52].port$o[2].channel typename "\"ned.IdealChannel\""
par RGG.node[12].port$o[10].channel typename "\"ned.IdealChannel\""
par RGG.node[57].port$o[2].channel typename "\"ned.IdealChannel\""
par RGG.node[12].port$o[11].channel typename "\"ned.IdealChannel\""
par RGG.node[64].port$o[2].channel typename "\"ned.IdealChannel\""
par RGG.node[12].port$o[12].channel typename "\"ned.IdealChannel\""
par RGG.node[71].port$o[3].channel typename "\"ned.IdealChannel\""
par RGG.node[12].port$o[13].channel typename "\"ned.IdealChannel\""
par RGG.node[74].port$o[2].channel typename "\"ned.IdealChannel\""
par RGG.node[12].port$o[14].channel typename "\"ned.IdealChannel\""
par RGG.node[77].port$o[2].channel typename "\"ned.IdealChannel\""
par RGG.node[12].port$o[15].channel typename "\"ned.IdealChannel\""
par RGG.node[78].port$o[2].channel typename "\"ned.IdealChannel\""
par RGG.node[12].port$o[16].channel typename "\"ned.IdealChannel\""
par RGG.node[79].port$o[2].channel typename "\"ned.IdealChannel\""
par RGG.node[12].port$o[17].channel typename "\"ned.IdealChannel\""
par RGG.node[80].port$o[2].channel typename "\"ned.IdealChannel\""
par RGG.node[12].port$o[18].channel typename "\"ned.IdealChannel\""
par RGG.node[82].port$o[2].channel typename "\"ned.IdealChannel\""
par RGG.node[12].port$o[19].channel typename "\"ned.IdealChannel\""
par RGG.node[83].port$o[2].channel typename "\"ned.IdealChannel\""
par RGG.node[12].port$o[20].channel typename "\"ned.IdealChannel\""
par RGG.node[86].port$o[2].channel typename "\"ned.IdealChannel\""
par RGG.node[12].port$o[21].channel typename "\"ned.IdealChannel\""
par RGG.node[96].port$o[2].channel typename "\"ned.IdealChannel\""
par RGG.node[13].port$o[1].channel typename "\"ned.IdealChannel\""
par RGG.node[24].port$o[1].channel typename "\"ned.IdealChannel\""
par RGG.node[13].port$o[2].channel typename "\"ned.IdealChannel\""
par RGG.node[25].port$o[1].channel typename "\"ned.IdealChannel\""
par RGG.node[13].port$o[3].channel typename "\"ned.IdealChannel\""
par RGG.node[29].port$o[2].channel typename "\"ned.IdealChannel\""
par RGG.node[13].port$o[4].channel typename "\"ned.IdealChannel\""
par RGG.node[36].port$o[1].channel typename "\"ned.IdealChannel\""
par RGG.node[13].port$o[5].channel typename "\"ned.IdealChannel\""
par RGG.node[40].port$o[1].channel typename "\"ned.IdealChannel\""
par RGG.node[13].port$o[6].channel typename "\"ned.IdealChannel\""
par RGG.node[58].port$o[2].channel typename "\"ned.IdealChannel\""
par RGG.node[13].port$o[7].channel typename "\"ned.IdealChannel\""
par RGG.node[60].port$o[1].channel typename "\"ned.IdealChannel\""
par RGG.node[13].port$o[8].channel typename "\"ned.IdealChannel\""
par RGG.node[62].port$o[1].channel typename "\"ned.IdealChannel\""
par RGG.node[13].port$o[9].channel typename "\"ned.IdealChannel\""
par RGG.node[69].port$o[1].channel typename "\"ned.IdealChannel\""
par RGG.node[13].port$o[10].channel typename "\"ned.IdealChannel\""
par RGG.node[70].port$o[1].channel typename "\"ned.IdealChannel\""
par RGG.node[13].port$o[11].channel typename "\"ned.IdealChannel\""
par RGG.node[76].port$o[2].channel typename "\"ned.IdealChannel\""
par RGG.node[14].port$o[1].channel typename "\"ned.IdealChannel\""
par RGG.node[18].port$o[3].channel typename "\"ned.IdealChannel\""
par RGG.node[14].port$o[2].channel typename "\"ned.IdealChannel\""
par RGG.node[24].port$o[2].channel typename "\"ned.IdealChannel\""
par RGG.node[14].port$o[3].channel typename "\"ned.IdealChannel\""
par RGG.node[25].port$o[2].channel typename "\"ned.IdealChannel\""
par RGG.node[14].port$o[4].channel typename "\"ned.IdealChannel\""
par RGG.node[27].port$o[3].channel typename "\"ned.IdealChannel\""
par RGG.node[14].port$o[5].channel typename "\"ned.IdealChannel\""
par RGG.node[34].port$o[1].channel typename "\"ned.IdealChannel\""
par RGG.node[14].port$o[6].channel typename "\"ned.IdealChannel\""
par RGG.node[36].port$o[2].channel typename "\"ned.IdealChannel\""
par RGG.node[14].port$o[7].channel typename "\"ned.IdealChannel\""
par RGG.node[40].port$o[2].channel typename "\"ned.IdealChannel\""
par RGG.node[14].port$o[8].channel typename "\"ned.IdealChannel\""
par RGG.node[53].port$o[3].channel typename "\"ned.IdealChannel\""
par RGG.node[14].port$o[9].channel typename "\"ned.IdealChannel\""
par RGG.node[60].port$o[2].channel typename "\"ned.IdealChannel\""
par RGG.node[14].port$o[10].channel typename "\"ned.IdealChannel\""
par RGG.node[61].port$o[3].channel typename "\"ned.IdealChannel\""
par RGG.node[14].port$o[11].channel typename "\"ned.IdealChannel\""
par RGG.node[62].port$o[2].channel typename "\"ned.IdealChannel\""
par RGG.node[14].port$o[12].channel typename "\"ned.IdealChannel\""
par RGG.node[69].port$o[2].channel typename "\"ned.IdealChannel\""
par RGG.node[14].port$o[13].channel typename "\"ned.IdealChannel\""
par RGG.node[70].port$o[2].channel typename "\"ned.IdealChannel\""
par RGG.node[14].port$o[14].channel typename "\"ned.IdealChannel\""
par RGG.node[73].port$o[1].channel typename "\"ned.IdealChannel\""
par RGG.node[14].port$o[15].channel typename "\"ned.IdealChannel\""
par RGG.node[85].port$o[3].channel typename "\"ned.IdealChannel\""
par RGG.node[14].port$o[16].channel typename "\"ned.IdealChannel\""
par RGG.node[99].port$o[1].channel typename "\"ned.IdealChannel\""
par RGG.node[15].port$o[3].channel typename "\"ned.IdealChannel\""
par RGG.node[17].port$o[4].channel typename "\"ned.IdealChannel\""
par RGG.node[15].port$o[4].channel typename "\"ned.IdealChannel\""
par RGG.node[20].port$o[3].channel typename "\"ned.IdealChannel\""
par RGG.node[15].port$o[5].channel typename "\"ned.IdealChannel\""
par RGG.node[23].port$o[3].channel typename "\"ned.IdealChannel\""
par RGG.node[15].port$o[6].channel typename "\"ned.IdealChannel\""
par RGG.node[29].port$o[3].channel typename "\"ned.IdealChannel\""
par RGG.node[15].port$o[7].channel typename "\"ned.IdealChannel\""
par RGG.node[33].port$o[4].channel typename "\"ned.IdealChannel\""
par RGG.node[15].port$o[8].channel typename "\"ned.IdealChannel\""
par RGG.node[43].port$o[4].channel typename "\"ned.IdealChannel\""
par RGG.node[15].port$o[9].channel typename "\"ned.IdealChannel\""
par RGG.node[44].port$o[3].channel typename "\"ned.IdealChannel\""
par RGG.node[15].port$o[10].channel typename "\"ned.IdealChannel\""
par RGG.node[50].port$o[4].channel typename "\"ned.IdealChannel\""
par RGG.node[15].port$o[11].channel typename "\"ned.IdealChannel\""
par RGG.node[51].port$o[3].channel typename "\"ned.IdealChannel\""
par RGG.node[15].port$o[12].channel typename "\"ned.IdealChannel\""
par RGG.node[52].port$o[3].channel typename "\"ned.IdealChannel\""
par RGG.node[15].port$o[13].channel typename "\"ned.IdealChannel\""
par RGG.node[58].port$o[3].channel typename "\"ned.IdealChannel\""
par RGG.node[15].port$o[14].channel typename "\"ned.IdealChannel\""
par RGG.node[64].port$o[3].channel typename "\"ned.IdealChannel\""
par RGG.node[15].port$o[15].channel typename "\"ned.IdealChannel\""
par RGG.node[65].port$o[3].channel typename "\"ned.IdealChannel\""
par RGG.node[15].port$o[16].channel typename "\"ned.IdealChannel\""
par RGG.node[71].port$o[4].channel typename "\"ned.IdealChannel\""
par RGG.node[15].port$o[17].channel typename "\"ned.IdealChannel\""
par RGG.node[76].port$o[3].channel typename "\"ned.IdealChannel\""
par RGG.node[15].port$o[18].channel typename "\"ned.IdealChannel\""
par RGG.node[80].port$o[3].channel typename "\"ned.IdealChannel\""
par RGG.node[15].port$o[19].channel typename "\"ned.IdealChannel\""
par RGG.node[93].port$o[3].channel typename "\"ned.IdealChannel\""
par RGG.node[16].port$o[0].channel typename "\"ned.IdealChannel\""
par RGG.node[35].port$o[0].channel typename "\"ned.IdealChannel\""
par RGG.node[16].port$o[1].channel typename "\"ned.IdealChannel\""
par RGG.node[41].port$o[2].channel typename "\"ned.IdealChannel\""
par RGG.node[16].port$o[2].channel typename "\"ned.IdealChannel\""
par RGG.node[42].port$o[1].channel typename "\"ned.IdealChannel\""
par RGG.node[16].port$o[3].channel typename "\"ned.IdealChannel\""
par RGG.node[46].port$o[0].channel typename "\"ned.IdealChannel\""
par RGG.node[16].port$o[4].channel typename "\"ned.IdealChannel\""
par RGG.node[49].port$o[2].channel typename "\"ned.IdealChannel\""
par RGG.node[16].port$o[5].channel typename "\"ned.IdealChannel\""
par RGG.node[68].port$o[0].channel typename "\"ned.IdealChannel\""
par RGG.node[16].port$o[6].channel typename "\"ned.IdealChannel\""
par RGG.node[92].port$o[0].channel typename "\"ned.IdealChannel\""
par RGG.node[17].port$o[5].channel typename "\"ned.IdealChannel\""
par RGG.node[20].port$o[4].channel typename "\"ned.IdealChannel\""
par RGG.node[17].port$o[6].channel typename "\"ned.IdealChannel\""
par RGG.node[23].port$o[4].channel typename "\"ned.IdealChannel\""
par RGG.node[17].port$o[7].channel typename "\"ned.IdealChannel\""
par RGG.node[28].port$o[3].channel typename "\"ned.IdealChannel\""
par RGG.node[17].port$o[8].channel typename "\"ned.IdealChannel\""
par RGG.node[33].port$o[5].channel typename "\"ned.IdealChannel\""
par RGG.node[17].port$o[9].channel typename "\"ned.IdealChannel\""
par RGG.node[43].port$o[5].channel typename "\"ned.IdealChannel\""
par RGG.node[17].port$o[10].channel typename "\"ned.IdealChannel\""
par RGG.node[50].port$o[5].channel typename "\"ned.IdealChannel\""
par RGG.node[17].port$o[11].channel typename "\"ned.IdealChannel\""
par RGG.node[52].port$o[4].channel typename "\"ned.IdealChannel\""
par RGG.node[17].port$o[12].channel typename "\"ned.IdealChannel\""
par RGG.node[57].port$o[3].channel typename "\"ned.IdealChannel\""
par RGG.node[17].port$o[13].channel typename "\"ned.IdealChannel\""
par RGG.node[64].port$o[4].channel typename "\"ned.IdealChannel\""
par RGG.node[17].port$o[14].channel typename "\"ned.IdealChannel\""
par RGG.node[71].port$o[5].channel typename "\"ned.IdealChannel\""
par RGG.node[17].port$o[15].channel typename "\"ned.IdealChannel\""
par RGG.node[74].port$o[3].channel typename "\"ned.IdealChannel\""
par RGG.node[17].port$o[16].channel typename "\"ned.IdealChannel\""
par RGG.node[76].port$o[4].channel typename "\"ned.IdealChannel\""
par RGG.node[17].port$o[17].channel typename "\"ned.IdealChannel\""
par RGG.node[80].port$o[4].channel typename "\"ned.IdealChannel\""
par RGG.node[17].port$o[18].channel typename "\"ned.IdealChannel\""
par RGG.node[82].port$o[3].channel typename "\"ned.IdealChannel\""
par RGG.node[17].port$o[19].channel typename "\"ned.IdealChannel\""
par RGG.node[83].port$o[3].channel typename "\"ned.IdealChannel\""
par RGG.node[17].port$o[20].channel typename "\"ned.IdealChannel\""
par RGG.node[96].port$o[3].channel typename "\"ned.IdealChannel\""
par RGG.node[18].port$o[4].channel typename "\"ned.IdealChannel\""
par RGG.node[22].port$o[2].channel typename "\"ned.IdealChannel\""
par RGG.node[18].port$o[5].channel typename "\"ned.IdealChannel\""
par RGG.node[24].port$o[3].channel typename "\"ned.IdealChannel\""
par RGG.node[18].port$o[6].channel typename "\"ned.IdealChannel\""
par RGG.node[27].port$o[4].channel typename "\"ned.IdealChannel\""
par RGG.node[18].port$o[7].channel typename "\"ned.IdealChannel\""
par RGG.node[34].port$o[2].channel typename "\"ned.IdealChannel\""
par RGG.node[18].port$o[8].channel typename "\"ned.IdealChannel\""
par RGG.node[53].port$o[4].channel typename "\"ned.IdealChannel\""
par RGG.node[18].port$o[9].channel typename "\"ned.IdealChannel\""
par RGG.node[61].port$o[4].channel typename "\"ned.IdealChannel\""
par RGG.node[18].port$o[10].channel typename "\"ned.IdealChannel\""
par RGG.node[62].port$o[3].channel typename "\"ned.IdealChannel\""
par RGG.node[18].port$o[11].channel typename "\"ned.IdealChannel\""
par RGG.node[85].port$o[4].channel typename "\"ned.IdealChannel\""
par RGG.node[18].port$o[12].channel typename "\"ned.IdealChannel\""
par RGG.node[91].port$o[3].channel typename "\"ned.IdealChannel\""
par RGG.node[18].port$o[13].channel typename "\"ned.IdealChannel\""
par RGG.node[94].port$o[2].channel typename "\"ned.IdealChannel\""
par RGG.node[18].port$o[14].channel typename "\"ned.IdealChannel\""
par RGG.node[99].port$o[2].channel typename "\"ned.IdealChannel\""
par RGG.node[19].port$o[2].channel typename "\"ned.IdealChannel\""
par RGG.node[30].port$o[3].channel typename "\"ned.IdealChannel\""
par RGG.node[19].port$o[3].channel typename "\"ned.IdealChannel\""
par RGG.node[38].port$o[3].channel typename "\"ned.IdealChannel\""
par RGG.node[19].port$o[4].channel typename "\"ned.IdealChannel\""
par RGG.node[48].port$o[2].channel typename "\"ned.IdealChannel\""
par RGG.node[19].port$o[5].channel typename "\"ned.IdealChannel\""
par RGG.node[55].port$o[2].channel typename "\"ned.IdealChannel\""
par RGG.node[19].port$o[6].channel typename "\"ned.IdealChannel\""
par RGG.node[84].port$o[4].channel typename "\"ned.IdealChannel\""
par RGG.node[20].port$o[5].channel typename "\"ned.IdealChannel\""
par RGG.node[23].port$o[5].channel typename "\"ned.IdealChannel\""
par RGG.node[20].port$o[6].channel typename "\"ned.IdealChannel\""
par RGG.node[29].port$o[4].channel typename "\"ned.IdealChannel\""
par RGG.node[20].port$o[7].channel typename "\"ned.IdealChannel\""
par RGG.node[33].port$o[6].channel typename "\"ned.IdealChannel\""
par RGG.node[20].port$o[8].channel typename "\"ned.IdealChannel\""
par RGG.node[43].port$o[6].channel typename "\"ned.IdealChannel\""
par RGG.node[20].port$o[9].channel typename "\"ned.IdealChannel\""
par RGG.node[44].port$o[4].channel typename "\"ned.IdealChannel\""
par RGG.node[20].port$o[10].channel typename "\"ned.IdealChannel\""
par RGG.node[50].port$o[6].channel typename "\"ned.IdealChannel\""
par RGG.node[20].port$o[11].channel typename "\"ned.IdealChannel\""
par RGG.node[51].port$o[4].channel typename "\"ned.IdealChannel\""
par RGG.node[20].port$o[12].channel typename "\"ned.IdealChannel\""
par RGG.node[52].port$o[5].channel typename "\"ned.IdealChannel\""
par RGG.node[20].port$o[13].channel typename "\"ned.IdealChannel\""
par RGG.node[58].port$o[4].channel typename "\"ned.IdealChannel\""
par RGG.node[20].port$o[14].channel typename "\"ned.IdealChannel\""
par RGG.node[65].port$o[4].channel typename "\"ned.IdealChannel\""
par RGG.node[20].port$o[15].channel typename "\"ned.IdealChannel\""
par RGG.node[71].port$o[6].channel typename "\"ned.IdealChannel\""
par RGG.node[20].port$o[16].channel typename "\"ned.IdealChannel\""
par RGG.node[76].port$o[5].channel typename "\"ned.IdealChannel\""
par RGG.node[20].port$o[17].channel typename "\"ned.IdealChannel\""
par RGG.node[80].port$o[5].channel typename "\"ned.IdealChannel\""
par RGG.node[20].port$o[18].channel typename "\"ned.IdealChannel\""
par RGG.node[93].port$o[4].channel typename "\"ned.IdealChannel\""
par RGG.node[21].port$o[2].channel typename "\"ned.IdealChannel\""
par RGG.node[26].port$o[2].channel typename "\"ned.IdealChannel\""
par RGG.node[21].port$o[3].channel typename "\"ned.IdealChannel\""
par RGG.node[37].port$o[0].channel typename "\"ned.IdealChannel\""
par RGG.node[21].port$o[4].channel typename "\"ned.IdealChannel\""
par RGG.node[38].port$o[4].channel typename "\"ned.IdealChannel\""
par RGG.node[21].port$o[5].channel typename "\"ned.IdealChannel\""
par RGG.node[45].port$o[1].channel typename "\"ned.IdealChannel\""
par RGG.node[21].port$o[6].channel typename "\"ned.IdealChannel\""
par RGG.node[47].port$o[0].channel typename "\"ned.IdealChannel\""
par RGG.node[21].port$o[7].channel typename "\"ned.IdealChannel\""
par RGG.node[54].port$o[2].channel typename "\"ned.IdealChannel\""
par RGG.node[21].port$o[8].channel typename "\"ned.IdealChannel\""
par RGG.node[59].port$o[0].channel typename "\"ned.IdealChannel\""
par RGG.node[21].port$o[9].channel typename "\"ned.IdealChannel\""
par RGG.node[63].port$o[0].channel typename "\"ned.IdealChannel\""
par RGG.node[21].port$o[10].channel typename "\"ned.IdealChannel\""
par RGG.node[72].port$o[1].channel typename "\"ned.IdealChannel\""
par RGG.node[21].port$o[11].channel typename "\"ned.IdealChannel\""
par RGG.node[75].port$o[0].channel typename "\"ned.IdealChannel\""
par RGG.node[21].port$o[12].channel typename "\"ned.IdealChannel\""
par RGG.node[81].port$o[2].channel typename "\"ned.IdealChannel\""
par RGG.node[21].port$o[13].channel typename "\"ned.IdealChannel\""
par RGG.node[87].port$o[2].channel typename "\"ned.IdealChannel\""
par RGG.node[21].port$o[14].channel typename "\"ned.IdealChannel\""
par RGG.node[88].port$o[0].channel typename "\"ned.IdealChannel\""
par RGG.node[21].port$o[15].channel typename "\"ned.IdealChannel\""
par RGG.node[90].port$o[2].channel typename "\"ned.IdealChannel\""
par RGG.node[21].port$o[16].channel typename "\"ned.IdealChannel\""
par RGG.node[95].port$o[2].channel typename "\"ned.IdealChannel\""
par RGG.node[21].port$o[17].channel typename "\"ned.IdealChannel\""
par RGG.node[97].port$o[2].channel typename "\"ned.IdealChannel\""
par RGG.node[22].port$o[3].channel typename "\"ned.IdealChannel\""
par RGG.node[27].port$o[5].channel typename "\"ned.IdealChannel\""
par RGG.node[22].port$o[4].channel typename "\"ned.IdealChannel\""
par RGG.node[30].port$o[4].channel typename "\"ned.IdealChannel\""
par RGG.node[22].port$o[5].channel typename "\"ned.IdealChannel\""
par RGG.node[48].port$o[3].channel typename "\"ned.IdealChannel\""
par RGG.node[22].port$o[6].channel typename "\"ned.IdealChannel\""
par RGG.node[53].port$o[5].channel typename "\"ned.IdealChannel\""
par RGG.node[22].port$o[7].channel typename "\"ned.IdealChannel\""
par RGG.node[56].port$o[4].channel typename "\"ned.IdealChannel\""
par RGG.node[22].port$o[8].channel typename "\"ned.IdealChannel\""
par RGG.node[61].port$o[5].channel typename "\"ned.IdealChannel\""
par RGG.node[22].port$o[9].channel typename "\"ned.IdealChannel\""
par RGG.node[66].port$o[3].channel typename "\"ned.IdealChannel\""
par RGG.node[22].port$o[10].channel typename "\"ned.IdealChannel\""
par RGG.node[84].port$o[5].channel typename "\"ned.IdealChannel\""
par RGG.node[22].port$o[11].channel typename "\"ned.IdealChannel\""
par RGG.node[85].port$o[5].channel typename "\"ned.IdealChannel\""
par RGG.node[22].port$o[12].channel typename "\"ned.IdealChannel\""
par RGG.node[91].port$o[4].channel typename "\"ned.IdealChannel\""
par RGG.node[22].port$o[13].channel typename "\"ned.IdealChannel\""
par RGG.node[94].port$o[3].channel typename "\"ned.IdealChannel\""
par RGG.node[22].port$o[14].channel typename "\"ned.IdealChannel\""
par RGG.node[98].port$o[4].channel typename "\"ned.IdealChannel\""
par RGG.node[23].port$o[6].channel typename "\"ned.IdealChannel\""
par RGG.node[25].port$o[3].channel typename "\"ned.IdealChannel\""
par RGG.node[23].port$o[7].channel typename "\"ned.IdealChannel\""
par RGG.node[28].port$o[4].channel typename "\"ned.IdealChannel\""
par RGG.node[23].port$o[8].channel typename "\"ned.IdealChannel\""
par RGG.node[33].port$o[7].channel typename "\"ned.IdealChannel\""
par RGG.node[23].port$o[9].channel typename "\"ned.IdealChannel\""
par RGG.node[39].port$o[1].channel typename "\"ned.IdealChannel\""
par RGG.node[23].port$o[10].channel typename "\"ned.IdealChannel\""
par RGG.node[50].port$o[7].channel typename "\"ned.IdealChannel\""
par RGG.node[23].port$o[11].channel typename "\"ned.IdealChannel\""
par RGG.node[57].port$o[4].channel typename "\"ned.IdealChannel\""
par RGG.node[23].port$o[12].channel typename "\"ned.IdealChannel\""
par RGG.node[64].port$o[5].channel typename "\"ned.IdealChannel\""
par RGG.node[23].port$o[13].channel typename "\"ned.IdealChannel\""
par RGG.node[69].port$o[3].channel typename "\"ned.IdealChannel\""
par RGG.node[23].port$o[14].channel typename "\"ned.IdealChannel\""
par RGG.node[71].port$o[7].channel typename "\"ned.IdealChannel\""
par RGG.node[23].port$o[15].channel typename "\"ned.IdealChannel\""
par RGG.node[74].port$o[4].channel typename "\"ned.IdealChannel\""
par RGG.node[23].port$o[16].channel typename "\"ned.IdealChannel\""
par RGG.node[76].port$o[6].channel typename "\"ned.IdealChannel\""
par RGG.node[23].port$o[17].channel typename "\"ned.IdealChannel\""
par RGG.node[80].port$o[6].channel typename "\"ned.IdealChannel\""
par RGG.node[23].port$o[18].channel typename "\"ned.IdealChannel\""
par RGG.node[83].port$o[4].channel typename "\"ned.IdealChannel\""
par RGG.node[24].port$o[4].channel typename "\"ned.IdealChannel\""
par RGG.node[25].port$o[4].channel typename "\"ned.IdealChannel\""
par RGG.node[24].port$o[5].channel typename "\"ned.IdealChannel\""
par RGG.node[27].port$o[6].channel typename "\"ned.IdealChannel\""
par RGG.node[24].port$o[6].channel typename "\"ned.IdealChannel\""
par RGG.node[34].port$o[3].channel typename "\"ned.IdealChannel\""
par RGG.node[24].port$o[7].channel typename "\"ned.IdealChannel\""
par RGG.node[36].port$o[3].channel typename "\"ned.IdealChannel\""
par RGG.node[24].port$o[8].channel typename "\"ned.IdealChannel\""
par RGG.node[40].port$o[3].channel typename "\"ned.IdealChannel\""
par RGG.node[24].port$o[9].channel typename "\"ned.IdealChannel\""
par RGG.node[53].port$o[6].channel typename "\"ned.IdealChannel\""
par RGG.node[24].port$o[10].channel typename "\"ned.IdealChannel\""
par RGG.node[60].port$o[3].channel typename "\"ned.IdealChannel\""
par RGG.node[24].port$o[11].channel typename "\"ned.IdealChannel\""
par RGG.node[62].port$o[4].channel typename "\"ned.IdealChannel\""
par RGG.node[24].port$o[12].channel typename "\"ned.IdealChannel\""
par RGG.node[69].port$o[4].channel typename "\"ned.IdealChannel\""
par RGG.node[24].port$o[13].channel typename "\"ned.IdealChannel\""
par RGG.node[70].port$o[3].channel typename "\"ned.IdealChannel\""
par RGG.node[24].port$o[14].channel typename "\"ned.IdealChannel\""
par RGG.node[73].port$o[2].channel typename "\"ned.IdealChannel\""
par RGG.node[24].port$o[15].channel typename "\"ned.IdealChannel\""
par RGG.node[85].port$o[6].channel typename "\"ned.IdealChannel\""
par RGG.node[24].port$o[16].channel typename "\"ned.IdealChannel\""
par RGG.node[99].port$o[3].channel typename "\"ned.IdealChannel\""
par RGG.node[25].port$o[5].channel typename "\"ned.IdealChannel\""
par RGG.node[29].port$o[5].channel typename "\"ned.IdealChannel\""
par RGG.node[25].port$o[6].channel typename "\"ned.IdealChannel\""
par RGG.node[36].port$o[4].channel typename "\"ned.IdealChannel\""
par RGG.node[25].port$o[7].channel typename "\"ned.IdealChannel\""
par RGG.node[40].port$o[4].channel typename "\"ned.IdealChannel\""
par RGG.node[25].port$o[8].channel typename "\"ned.IdealChannel\""
par RGG.node[60].port$o[4].channel typename "\"ned.IdealChannel\""
par RGG.node[25].port$o[9].channel typename "\"ned.IdealChannel\""
par RGG.node[62].port$o[5].channel typename "\"ned.IdealChannel\""
par RGG.node[25].port$o[10].channel typename "\"ned.IdealChannel\""
par RGG.node[69].port$o[5].channel typename "\"ned.IdealChannel\""
par RGG.node[25].port$o[11].channel typename "\"ned.IdealChannel\""
par RGG.node[70].port$o[4].channel typename "\"ned.IdealChannel\""
par RGG.node[25].port$o[12].channel typename "\"ned.IdealChannel\""
par RGG.node[76].port$o[7].channel typename "\"ned.IdealChannel\""
par RGG.node[26].port$o[3].channel typename "\"ned.IdealChannel\""
par RGG.node[38].port$o[5].channel typename "\"ned.IdealChannel\""
par RGG.node[26].port$o[4].channel typename "\"ned.IdealChannel\""
par RGG.node[39].port$o[2].channel typename "\"ned.IdealChannel\""
par RGG.node[26].port$o[5].channel typename "\"ned.IdealChannel\""
par RGG.node[54].port$o[3].channel typename "\"ned.IdealChannel\""
par RGG.node[26].port$o[6].channel typename "\"ned.IdealChannel\""
par RGG.node[56].port$o[5].channel typename "\"ned.IdealChannel\""
par RGG.node[26].port$o[7].channel typename "\"ned.IdealChannel\""
par RGG.node[66].port$o[4].channel typename "\"ned.IdealChannel\""
par RGG.node[26].port$o[8].channel typename "\"ned.IdealChannel\""
par RGG.node[72].port$o[2].channel typename "\"ned.IdealChannel\""
par RGG.node[26].port$o[9].channel typename "\"ned.IdealChannel\""
par RGG.node[81].port$o[3].channel typename "\"ned.IdealChannel\""
par RGG.node[26].port$o[10].channel typename "\"ned.IdealChannel\""
par RGG.node[84].port$o[6].channel typename "\"ned.IdealChannel\""
par RGG.node[26].port$o[11].channel typename "\"ned.IdealChannel\""
par RGG.node[87].port$o[3].channel typename "\"ned.IdealChannel\""
par RGG.node[26].port$o[12].channel typename "\"ned.IdealChannel\""
par RGG.node[89].port$o[1].channel typename "\"ned.IdealChannel\""
par RGG.node[26].port$o[13].channel typename "\"ned.IdealChannel\""
par RGG.node[90].port$o[3].channel typename "\"ned.IdealChannel\""
par RGG.node[26].port$o[14].channel typename "\"ned.IdealChannel\""
par RGG.node[94].port$o[4].channel typename "\"ned.IdealChannel\""
par RGG.node[26].port$o[15].channel typename "\"ned.IdealChannel\""
par RGG.node[95].port$o[3].channel typename "\"ned.IdealChannel\""
par RGG.node[26].port$o[16].channel typename "\"ned.IdealChannel\""
par RGG.node[97].port$o[3].channel typename "\"ned.IdealChannel\""
par RGG.node[26].port$o[17].channel typename "\"ned.IdealChannel\""
par RGG.node[98].port$o[5].channel typename "\"ned.IdealChannel\""
par RGG.node[27].port$o[7].channel typename "\"ned.IdealChannel\""
par RGG.node[34].port$o[4].channel typename "\"ned.IdealChannel\""
par RGG.node[27].port$o[8].channel typename "\"ned.IdealChannel\""
par RGG.node[53].port$o[7].channel typename "\"ned.IdealChannel\""
par RGG.node[27].port$o[9].channel typename "\"ned.IdealChannel\""
par RGG.node[61].port$o[6].channel typename "\"ned.IdealChannel\""
par RGG.node[27].port$o[10].channel typename "\"ned.IdealChannel\""
par RGG.node[62].port$o[6].channel typename "\"ned.IdealChannel\""
par RGG.node[27].port$o[11].channel typename "\"ned.IdealChannel\""
par RGG.node[66].port$o[5].channel typename "\"ned.IdealChannel\""
par RGG.node[27].port$o[12].channel typename "\"ned.IdealChannel\""
par RGG.node[85].port$o[7].channel typename "\"ned.IdealChannel\""
par RGG.node[27].port$o[13].channel typename "\"ned.IdealChannel\""
par RGG.node[91].port$o[5].channel typename "\"ned.IdealChannel\""
par RGG.node[27].port$o[14].channel typename "\"ned.IdealChannel\""
par RGG.node[94].port$o[5].channel typename "\"ned.IdealChannel\""
par RGG.node[27].port$o[15].channel typename "\"ned.IdealChannel\""
par RGG.node[99].port$o[4].channel typename "\"ned.IdealChannel\""
par RGG.node[28].port$o[5].channel typename "\"ned.IdealChannel\""
par RGG.node[31].port$o[3].channel typename "\"ned.IdealChannel\""
par RGG.node[28].port$o[6].channel typename "\"ned.IdealChannel\""
par RGG.node[33].port$o[8].channel typename "\"ned.IdealChannel\""
par RGG.node[28].port$o[7].channel typename "\"ned.IdealChannel\""
par RGG.node[39].port$o[3].channel typename "\"ned.IdealChannel\""
par RGG.node[28].port$o[8].channel typename "\"ned.IdealChannel\""
par RGG.node[57].port$o[5].channel typename "\"ned.IdealChannel\""
par RGG.node[28].port$o[9].channel typename "\"ned.IdealChannel\""
par RGG.node[64].port$o[6].channel typename "\"ned.IdealChannel\""
par RGG.node[28].port$o[10].channel typename "\"ned.IdealChannel\""
par RGG.node[72].port$o[3].channel typename "\"ned.IdealChannel\""
par RGG.node[28].port$o[11].channel typename "\"ned.IdealChannel\""
par RGG.node[74].port$o[5].channel typename "\"ned.IdealChannel\""
par RGG.node[28].port$o[12].channel typename "\"ned.IdealChannel\""
par RGG.node[77].port$o[3].channel typename "\"ned.IdealChannel\""
par RGG.node[28].port$o[13].channel typename "\"ned.IdealChannel\""
par RGG.node[79].port$o[3].channel typename "\"ned.IdealChannel\""
par RGG.node[28].port$o[14].channel typename "\"ned.IdealChannel\""
par RGG.node[80].port$o[7].channel typename "\"ned.IdealChannel\""
par RGG.node[28].port$o[15].channel typename "\"ned.IdealChannel\""
par RGG.node[83].port$o[5].channel typename "\"ned.IdealChannel\""
par RGG.node[28].port$o[16].channel typename "\"ned.IdealChannel\""
par RGG.node[86].port$o[3].channel typename "\"ned.IdealChannel\""
par RGG.node[28].port$o[17].channel typename "\"ned.IdealChannel\""
par RGG.node[89].port$o[2].channel typename "\"ned.IdealChannel\""
par RGG.node[29].port$o[6].channel typename "\"ned.IdealChannel\""
par RGG.node[36].port$o[5].channel typename "\"ned.IdealChannel\""
par RGG.node[29].port$o[7].channel typename "\"ned.IdealChannel\""
par RGG.node[40].port$o[5].channel typename "\"ned.IdealChannel\""
par RGG.node[29].port$o[8].channel typename "\"ned.IdealChannel\""
par RGG.node[44].port$o[5].channel typename "\"ned.IdealChannel\""
par RGG.node[29].port$o[9].channel typename "\"ned.IdealChannel\""
par RGG.node[58].port$o[5].channel typename "\"ned.IdealChannel\""
par RGG.node[29].port$o[10].channel typename "\"ned.IdealChannel\""
par RGG.node[70].port$o[5].channel typename "\"ned.IdealChannel\""
par RGG.node[29].port$o[11].channel typename "\"ned.IdealChannel\""
par RGG.node[76].port$o[8].channel typename "\"ned.IdealChannel\""
par RGG.node[30].port$o[5].channel typename "\"ned.IdealChannel\""
par RGG.node[38].port$o[6].channel typename "\"ned.IdealChannel\""
par RGG.node[30].port$o[6].channel typename "\"ned.IdealChannel\""
par RGG.node[48].port$o[4].channel typename "\"ned.IdealChannel\""
par RGG.node[30].port$o[7].channel typename "\"ned.IdealChannel\""
par RGG.node[56].port$o[6].channel typename "\"ned.IdealChannel\""
par RGG.node[30].port$o[8].channel typename "\"ned.IdealChannel\""
par RGG.node[84].port$o[7].channel typename "\"ned.IdealChannel\""
par RGG.node[30].port$o[9].channel typename "\"ned.IdealChannel\""
par RGG.node[91].port$o[6].channel typename "\"ned.IdealChannel\""
par RGG.node[30].port$o[10].channel typename "\"ned.IdealChannel\""
par RGG.node[94].port$o[6].channel typename "\"ned.IdealChannel\""
par RGG.node[30].port$o[11].channel typename "\"ned.IdealChannel\""
par RGG.node[98].port$o[6].channel typename "\"ned.IdealChannel\""
par RGG.node[31].port$o[4].channel typename "\"ned.IdealChannel\""
par RGG.node[41].port$o[3].channel typename "\"ned.IdealChannel\""
par RGG.node[31].port$o[5].channel typename "\"ned.IdealChannel\""
par RGG.node[49].port$o[3].channel typename "\"ned.IdealChannel\""
par RGG.node[31].port$o[6].channel typename "\"ned.IdealChannel\""
par RGG.node[64].port$o[7].channel typename "\"ned.IdealChannel\""
par RGG.node[31].port$o[7].channel typename "\"ned.IdealChannel\""
par RGG.node[77].port$o[4].channel typename "\"ned.IdealChannel\""
par RGG.node[31].port$o[8].channel typename "\"ned.IdealChannel\""
par RGG.node[78].port$o[3].channel typename "\"ned.IdealChannel\""
par RGG.node[31].port$o[9].channel typename "\"ned.IdealChannel\""
par RGG.node[82].port$o[4].channel typename "\"ned.IdealChannel\""
par RGG.node[31].port$o[10].channel typename "\"ned.IdealChannel\""
par RGG.node[83].port$o[6].channel typename "\"ned.IdealChannel\""
par RGG.node[31].port$o[11].channel typename "\"ned.IdealChannel\""
par RGG.node[96].port$o[4].channel typename "\"ned.IdealChannel\""
par RGG.node[32].port$o[3].channel typename "\"ned.IdealChannel\""
par RGG.node[43].port$o[7].channel typename "\"ned.IdealChannel\""
par RGG.node[32].port$o[4].channel typename "\"ned.IdealChannel\""
par RGG.node[44].port$o[6].channel typename "\"ned.IdealChannel\""
par RGG.node[32].port$o[5].channel typename "\"ned.IdealChannel\""
par RGG.node[50].port$o[8].channel typename "\"ned.IdealChannel\""
par RGG.node[32].port$o[6].channel typename "\"ned.IdealChannel\""
par RGG.node[51].port$o[5].channel typename "\"ned.IdealChannel\""
par RGG.node[32].port$o[7].channel typename "\"ned.IdealChannel\""
par RGG.node[52].port$o[6].channel typename "\"ned.IdealChannel\""
par RGG.node[32].port$o[8].channel typename "\"ned.IdealChannel\""
par RGG.node[65].port$o[5].channel typename "\"ned.IdealChannel\""
par RGG.node[32].port$o[9].channel typename "\"ned.IdealChannel\""
par RGG.node[67].port$o[1].channel typename "\"ned.IdealChannel\""
par RGG.node[32].port$o[10].channel typename "\"ned.IdealChannel\""
par RGG.node[71].port$o[8].channel typename "\"ned.IdealChannel\""
par RGG.node[32].port$o[11].channel typename "\"ned.IdealChannel\""
par RGG.node[93].port$o[5].channel typename "\"ned.IdealChannel\""
par RGG.node[33].port$o[9].channel typename "\"ned.IdealChannel\""
par RGG.node[43].port$o[8].channel typename "\"ned.IdealChannel\""
par RGG.node[33].port$o[10].channel typename "\"ned.IdealChannel\""
par RGG.node[50].port$o[9].channel typename "\"ned.IdealChannel\""
par RGG.node[33].port$o[11].channel typename "\"ned.IdealChannel\""
par RGG.node[52].port$o[7].channel typename "\"ned.IdealChannel\""
par RGG.node[33].port$o[12].channel typename "\"ned.IdealChannel\""
par RGG.node[57].port$o[6].channel typename "\"ned.IdealChannel\""
par RGG.node[33].port$o[13].channel typename "\"ned.IdealChannel\""
par RGG.node[64].port$o[8].channel typename "\"ned.IdealChannel\""
par RGG.node[33].port$o[14].channel typename "\"ned.IdealChannel\""
par RGG.node[69].port$o[6].channel typename "\"ned.IdealChannel\""
par RGG.node[33].port$o[15].channel typename "\"ned.IdealChannel\""
par RGG.node[71].port$o[9].channel typename "\"ned.IdealChannel\""
par RGG.node[33].port$o[16].channel typename "\"ned.IdealChannel\""
par RGG.node[74].port$o[6].channel typename "\"ned.IdealChannel\""
par RGG.node[33].port$o[17].channel typename "\"ned.IdealChannel\""
par RGG.node[76].port$o[9].channel typename "\"ned.IdealChannel\""
par RGG.node[33].port$o[18].channel typename "\"ned.IdealChannel\""
par RGG.node[80].port$o[8].channel typename "\"ned.IdealChannel\""
par RGG.node[33].port$o[19].channel typename "\"ned.IdealChannel\""
par RGG.node[83].port$o[7].channel typename "\"ned.IdealChannel\""
par RGG.node[34].port$o[5].channel typename "\"ned.IdealChannel\""
par RGG.node[60].port$o[5].channel typename "\"ned.IdealChannel\""
par RGG.node[34].port$o[6].channel typename "\"ned.IdealChannel\""
par RGG.node[61].port$o[7].channel typename "\"ned.IdealChannel\""
par RGG.node[34].port$o[7].channel typename "\"ned.IdealChannel\""
par RGG.node[62].port$o[7].channel typename "\"ned.IdealChannel\""
par RGG.node[34].port$o[8].channel typename "\"ned.IdealChannel\""
par RGG.node[73].port$o[3].channel typename "\"ned.IdealChannel\""
par RGG.node[34].port$o[9].channel typename "\"ned.IdealChannel\""
par RGG.node[85].port$o[8].channel typename "\"ned.IdealChannel\""
par RGG.node[34].port$o[10].channel typename "\"ned.IdealChannel\""
par RGG.node[99].port$o[5].channel typename "\"ned.IdealChannel\""
par RGG.node[35].port$o[1].channel typename "\"ned.IdealChannel\""
par RGG.node[42].port$o[2].channel typename "\"ned.IdealChannel\""
par RGG.node[35].port$o[2].channel typename "\"ned.IdealChannel\""
par RGG.node[46].port$o[1].channel typename "\"ned.IdealChannel\""
par RGG.node[35].port$o[3].channel typename "\"ned.IdealChannel\""
par RGG.node[47].port$o[1].channel typename "\"ned.IdealChannel\""
par RGG.node[35].port$o[4].channel typename "\"ned.IdealChannel\""
par RGG.node[59].port$o[1].channel typename "\"ned.IdealChannel\""
par RGG.node[35].port$o[5].channel typename "\"ned.IdealChannel\""
par RGG.node[68].port$o[1].channel typename "\"ned.IdealChannel\""
par RGG.node[35].port$o[6].channel typename "\"ned.IdealChannel\""
par RGG.node[88].port$o[1].channel typename "\"ned.IdealChannel\""
par RGG.node[35].port$o[7].channel typename "\"ned.IdealChannel\""
par RGG.node[92].port$o[1].channel typename "\"ned.IdealChannel\""
par RGG.node[36].port$o[6].channel typename "\"ned.IdealChannel\""
par RGG.node[40].port$o[6].channel typename "\"ned.IdealChannel\""
par RGG.node[36].port$o[7].channel typename "\"ned.IdealChannel\""
par RGG.node[58].port$o[6].channel typename "\"ned.IdealChannel\""
par RGG.node[36].port$o[8].channel typename "\"ned.IdealChannel\""
par RGG.node[60].port$o[6].channel typename "\"ned.IdealChannel\""
par RGG.node[36].port$o[9].channel typename "\"ned.IdealChannel\""
par RGG.node[62].port$o[8].channel typename "\"ned.IdealChannel\""
par RGG.node[36].port$o[10].channel typename "\"ned.IdealChannel\""
par RGG.node[69].port$o[7].channel typename "\"ned.IdealChannel\""
par RGG.node[36].port$o[11].channel typename "\"ned.IdealChannel\""
par RGG.node[70].port$o[6].channel typename "\"ned.IdealChannel\""
par RGG.node[36].port$o[12].channel typename "\"ned.IdealChannel\""
par RGG.node[76].port$o[10].channel typename "\"ned.IdealChannel\""
par RGG.node[37].port$o[1].channel typename "\"ned.IdealChannel\""
par RGG.node[45].port$o[2].channel typename "\"ned.IdealChannel\""
par RGG.node[37].port$o[2].channel typename "\"ned.IdealChannel\""
par RGG.node[46].port$o[2].channel typename "\"ned.IdealChannel\""
par RGG.node[37].port$o[3].channel typename "\"ned.IdealChannel\""
par RGG.node[47].port$o[2].channel typename "\"ned.IdealChannel\""
par RGG.node[37].port$o[4].channel typename "\"ned.IdealChannel\""
par RGG.node[59].port$o[2].channel typename "\"ned.IdealChannel\""
par RGG.node[37].port$o[5].channel typename "\"ned.IdealChannel\""
par RGG.node[63].port$o[1].channel typename "\"ned.IdealChannel\""
par RGG.node[37].port$o[6].channel typename "\"ned.IdealChannel\""
par RGG.node[68].port$o[2].channel typename "\"ned.IdealChannel\""
par RGG.node[37].port$o[7].channel typename "\"ned.IdealChannel\""
par RGG.node[72].port$o[4].channel typename "\"ned.IdealChannel\""
par RGG.node[37].port$o[8].channel typename "\"ned.IdealChannel\""
par RGG.node[75].port$o[1].channel typename "\"ned.IdealChannel\""
par RGG.node[37].port$o[9].channel typename "\"ned.IdealChannel\""
par RGG.node[77].port$o[5].channel typename "\"ned.IdealChannel\""
par RGG.node[37].port$o[10].channel typename "\"ned.IdealChannel\""
par RGG.node[79].port$o[4].channel typename "\"ned.IdealChannel\""
par RGG.node[37].port$o[11].channel typename "\"ned.IdealChannel\""
par RGG.node[86].port$o[4].channel typename "\"ned.IdealChannel\""
par RGG.node[37].port$o[12].channel typename "\"ned.IdealChannel\""
par RGG.node[87].port$o[4].channel typename "\"ned.IdealChannel\""
par RGG.node[37].port$o[13].channel typename "\"ned.IdealChannel\""
par RGG.node[88].port$o[2].channel typename "\"ned.IdealChannel\""
par RGG.node[37].port$o[14].channel typename "\"ned.IdealChannel\""
par RGG.node[95].port$o[4].channel typename "\"ned.IdealChannel\""
par RGG.node[38].port$o[7].channel typename "\"ned.IdealChannel\""
par RGG.node[54].port$o[4].channel typename "\"ned.IdealChannel\""
par RGG.node[38].port$o[8].channel typename "\"ned.IdealChannel\""
par RGG.node[55].port$o[3].channel typename "\"ned.IdealChannel\""
par RGG.node[38].port$o[9].channel typename "\"ned.IdealChannel\""
par RGG.node[56].port$o[7].channel typename "\"ned.IdealChannel\""
par RGG.node[38].port$o[10].channel typename "\"ned.IdealChannel\""
par RGG.node[81].port$o[4].channel typename "\"ned.IdealChannel\""
par RGG.node[38].port$o[11].channel typename "\"ned.IdealChannel\""
par RGG.node[84].port$o[8].channel typename "\"ned.IdealChannel\""
par RGG.node[38].port$o[12].channel typename "\"ned.IdealChannel\""
par RGG.node[87].port$o[5].channel typename "\"ned.IdealChannel\""
par RGG.node[38].port$o[13].channel typename "\"ned.IdealChannel\""
par RGG.node[90].port$o[4].channel typename "\"ned.IdealChannel\""
par RGG.node[38].port$o[14].channel typename "\"ned.IdealChannel\""
par RGG.node[95].port$o[5].channel typename "\"ned.IdealChannel\""
par RGG.node[38].port$o[15].channel typename "\"ned.IdealChannel\""
par RGG.node[97].port$o[4].channel typename "\"ned.IdealChannel\""
par RGG.node[38].port$o[16].channel typename "\"ned.IdealChannel\""
par RGG.node[98].port$o[7].channel typename "\"ned.IdealChannel\""
par RGG.node[39].port$o[4].channel typename "\"ned.IdealChannel\""
par RGG.node[57].port$o[7].channel typename "\"ned.IdealChannel\""
par RGG.node[39].port$o[5].channel typename "\"ned.IdealChannel\""
par RGG.node[66].port$o[6].channel typename "\"ned.IdealChannel\""
par RGG.node[39].port$o[6].channel typename "\"ned.IdealChannel\""
par RGG.node[69].port$o[8].channel typename "\"ned.IdealChannel\""
par RGG.node[39].port$o[7].channel typename "\"ned.IdealChannel\""
par RGG.node[72].port$o[5].channel typename "\"ned.IdealChannel\""
par RGG.node[39].port$o[8].channel typename "\"ned.IdealChannel\""
par RGG.node[74].port$o[7].channel typename "\"ned.IdealChannel\""
par RGG.node[39].port$o[9].channel typename "\"ned.IdealChannel\""
par RGG.node[79].port$o[5].channel typename "\"ned.IdealChannel\""
par RGG.node[39].port$o[10].channel typename "\"ned.IdealChannel\""
par RGG.node[81].port$o[5].channel typename "\"ned.IdealChannel\""
par RGG.node[39].port$o[11].channel typename "\"ned.IdealChannel\""
par RGG.node[86].port$o[5].channel typename "\"ned.IdealChannel\""
par RGG.node[39].port$o[12].channel typename "\"ned.IdealChannel\""
par RGG.node[89].port$o[3].channel typename "\"ned.IdealChannel\""
par RGG.node[39].port$o[13].channel typename "\"ned.IdealChannel\""
par RGG.node[97].port$o[5].channel typename "\"ned.IdealChannel\""
par RGG.node[39].port$o[14].channel typename "\"ned.IdealChannel\""
par RGG.node[98].port$o[8].channel typename "\"ned.IdealChannel\""
par RGG.node[40].port$o[7].channel typename "\"ned.IdealChannel\""
par RGG.node[60].port$o[7].channel typename "\"ned.IdealChannel\""
par RGG.node[40].port$o[8].channel typename "\"ned.IdealChannel\""
par RGG.node[62].port$o[9].channel typename "\"ned.IdealChannel\""
par RGG.node[40].port$o[9].channel typename "\"ned.IdealChannel\""
par RGG.node[70].port$o[7].channel typename "\"ned.IdealChannel\""
par RGG.node[40].port$o[10].channel typename "\"ned.IdealChannel\""
par RGG.node[76].port$o[11].channel typename "\"ned.IdealChannel\""
par RGG.node[41].port$o[4].channel typename "\"ned.IdealChannel\""
par RGG.node[42].port$o[3].channel typename "\"ned.IdealChannel\""
par RGG.node[41].port$o[5].channel typename "\"ned.IdealChannel\""
par RGG.node[49].port$o[4].channel typename "\"ned.IdealChannel\""
par RGG.node[41].port$o[6].channel typename "\"ned.IdealChannel\""
par RGG.node[78].port$o[4].channel typename "\"ned.IdealChannel\""
par RGG.node[41].port$o[7].channel typename "\"ned.IdealChannel\""
par RGG.node[82].port$o[5].channel typename "\"ned.IdealChannel\""
par RGG.node[41].port$o[8].channel typename "\"ned.IdealChannel\""
par RGG.node[96].port$o[5].channel typename "\"ned.IdealChannel\""
par RGG.node[42].port$o[4].channel typename "\"ned.IdealChannel\""
par RGG.node[46].port$o[3].channel typename "\"ned.IdealChannel\""
par RGG.node[42].port$o[5].channel typename "\"ned.IdealChannel\""
par RGG.node[47].port$o[3].channel typename "\"ned.IdealChannel\""
par RGG.node[42].port$o[6].channel typename "\"ned.IdealChannel\""
par RGG.node[49].port$o[5].channel typename "\"ned.IdealChannel\""
par RGG.node[42].port$o[7].channel typename "\"ned.IdealChannel\""
par RGG.node[59].port$o[3].channel typename "\"ned.IdealChannel\""
par RGG.node[42].port$o[8].channel typename "\"ned.IdealChannel\""
par RGG.node[68].port$o[3].channel typename "\"ned.IdealChannel\""
par RGG.node[42].port$o[9].channel typename "\"ned.IdealChannel\""
par RGG.node[88].port$o[3].channel typename "\"ned.IdealChannel\""
par RGG.node[42].port$o[10].channel typename "\"ned.IdealChannel\""
par RGG.node[92].port$o[2].channel typename "\"ned.IdealChannel\""
par RGG.node[43].port$o[9].channel typename "\"ned.IdealChannel\""
par RGG.node[50].port$o[10].channel typename "\"ned.IdealChannel\""
par RGG.node[43].port$o[10].channel typename "\"ned.IdealChannel\""
par RGG.node[51].port$o[6].channel typename "\"ned.IdealChannel\""
par RGG.node[43].port$o[11].channel typename "\"ned.IdealChannel\""
par RGG.node[52].port$o[8].channel typename "\"ned.IdealChannel\""
par RGG.node[43].port$o[12].channel typename "\"ned.IdealChannel\""
par RGG.node[64].port$o[9].channel typename "\"ned.IdealChannel\""
par RGG.node[43].port$o[13].channel typename "\"ned.IdealChannel\""
par RGG.node[65].port$o[6].channel typename "\"ned.IdealChannel\""
par RGG.node[43].port$o[14].channel typename "\"ned.IdealChannel\""
par RGG.node[67].port$o[2].channel typename "\"ned.IdealChannel\""
par RGG.node[43].port$o[15].channel typename "\"ned.IdealChannel\""
par RGG.node[71].port$o[10].channel typename "\"ned.IdealChannel\""
par RGG.node[43].port$o[16].channel typename "\"ned.IdealChannel\""
par RGG.node[78].port$o[5].channel typename "\"ned.IdealChannel\""
par RGG.node[43].port$o[17].channel typename "\"ned.IdealChannel\""
par RGG.node[80].port$o[9].channel typename "\"ned.IdealChannel\""
par RGG.node[43].port$o[18].channel typename "\"ned.IdealChannel\""
par RGG.node[82].port$o[6].channel typename "\"ned.IdealChannel\""
par RGG.node[43].port$o[19].channel typename "\"ned.IdealChannel\""
par RGG.node[83].port$o[8].channel typename "\"ned.IdealChannel\""
par RGG.node[43].port$o[20].channel typename "\"ned.IdealChannel\""
par RGG.node[93].port$o[6].channel typename "\"ned.IdealChannel\""
par RGG.node[43].port$o[21].channel typename "\"ned.IdealChannel\""
par RGG.node[96].port$o[6].channel typename "\"ned.IdealChannel\""
par RGG.node[44].port$o[7].channel typename "\"ned.IdealChannel\""
par RGG.node[50].port$o[11].channel typename "\"ned.IdealChannel\""
par RGG.node[44].port$o[8].channel typename "\"ned.IdealChannel\""
par RGG.node[51].port$o[7].channel typename "\"ned.IdealChannel\""
par RGG.node[44].port$o[9].channel typename "\"ned.IdealChannel\""
par RGG.node[52].port$o[9].channel typename "\"ned.IdealChannel\""
par RGG.node[44].port$o[10].channel typename "\"ned.IdealChannel\""
par RGG.node[58].port$o[7].channel typename "\"ned.IdealChannel\""
par RGG.node[44].port$o[11].channel typename "\"ned.IdealChannel\""
par RGG.node[65].port$o[7].channel typename "\"ned.IdealChannel\""
par RGG.node[44].port$o[12].channel typename "\"ned.IdealChannel\""
par RGG.node[71].port$o[11].channel typename "\"ned.IdealChannel\""
par RGG.node[44].port$o[13].channel typename "\"ned.IdealChannel\""
par RGG.node[76].port$o[12].channel typename "\"ned.IdealChannel\""
par RGG.node[44].port$o[14].channel typename "\"ned.IdealChannel\""
par RGG.node[80].port$o[10].channel typename "\"ned.IdealChannel\""
par RGG.node[44].port$o[15].channel typename "\"ned.IdealChannel\""
par RGG.node[93].port$o[7].channel typename "\"ned.IdealChannel\""
par RGG.node[45].port$o[3].channel typename "\"ned.IdealChannel\""
par RGG.node[47].port$o[4].channel typename "\"ned.IdealChannel\""
par RGG.node[45].port$o[4].channel typename "\"ned.IdealChannel\""
par RGG.node[54].port$o[5].channel typename "\"ned.IdealChannel\""
par RGG.node[45].port$o[5].channel typename "\"ned.IdealChannel\""
par RGG.node[59].port$o[4].channel typename "\"ned.IdealChannel\""
par RGG.node[45].port$o[6].channel typename "\"ned.IdealChannel\""
par RGG.node[63].port$o[2].channel typename "\"ned.IdealChannel\""
par RGG.node[45].port$o[7].channel typename "\"ned.IdealChannel\""
par RGG.node[68].port$o[4].channel typename "\"ned.IdealChannel\""
par RGG.node[45].port$o[8].channel typename "\"ned.IdealChannel\""
par RGG.node[72].port$o[6].channel typename "\"ned.IdealChannel\""
par RGG.node[45].port$o[9].channel typename "\"ned.IdealChannel\""
par RGG.node[75].port$o[2].channel typename "\"ned.IdealChannel\""
par RGG.node[45].port$o[10].channel typename "\"ned.IdealChannel\""
par RGG.node[87].port$o[6].channel typename "\"ned.IdealChannel\""
par RGG.node[45].port$o[11].channel typename "\"ned.IdealChannel\""
par RGG.node[88].port$o[4].channel typename "\"ned.IdealChannel\""
par RGG.node[45].port$o[12].channel typename "\"ned.IdealChannel\""
par RGG.node[89].port$o[4].channel typename "\"ned.IdealChannel\""
par RGG.node[45].port$o[13].channel typename "\"ned.IdealChannel\""
par RGG.node[90].port$o[5].channel typename "\"ned.IdealChannel\""
par RGG.node[45].port$o[14].channel typename "\"ned.IdealChannel\""
par RGG.node[95].port$o[6].channel typename "\"ned.IdealChannel\""
par RGG.node[45].port$o[15].channel typename "\"ned.IdealChannel\""
par RGG.node[97].port$o[6].channel typename "\"ned.IdealChannel\""
par RGG.node[46].port$o[4].channel typename "\"ned.IdealChannel\""
par RGG.node[47].port$o[5].channel typename "\"ned.IdealChannel\""
par RGG.node[46].port$o[5].channel typename "\"ned.IdealChannel\""
par RGG.node[59].port$o[5].channel typename "\"ned.IdealChannel\""
par RGG.node[46].port$o[6].channel typename "\"ned.IdealChannel\""
par RGG.node[63].port$o[3].channel typename "\"ned.IdealChannel\""
par RGG.node[46].port$o[7].channel typename "\"ned.IdealChannel\""
par RGG.node[68].port$o[5].channel typename "\"ned.IdealChannel\""
par RGG.node[46].port$o[8].channel typename "\"ned.IdealChannel\""
par RGG.node[75].port$o[3].channel typename "\"ned.IdealChannel\""
par RGG.node[46].port$o[9].channel typename "\"ned.IdealChannel\""
par RGG.node[88].port$o[5].channel typename "\"ned.IdealChannel\""
par RGG.node[46].port$o[10].channel typename "\"ned.IdealChannel\""
par RGG.node[92].port$o[3].channel typename "\"ned.IdealChannel\""
par RGG.node[47].port$o[6].channel typename "\"ned.IdealChannel\""
par RGG.node[59].port$o[6].channel typename "\"ned.IdealChannel\""
par RGG.node[47].port$o[7].channel typename "\"ned.IdealChannel\""
par RGG.node[63].port$o[4].channel typename "\"ned.IdealChannel\""
par RGG.node[47].port$o[8].channel typename "\"ned.IdealChannel\""
par RGG.node[68].port$o[6].channel typename "\"ned.IdealChannel\""
par RGG.node[47].port$o[9].channel typename "\"ned.IdealChannel\""
par RGG.node[75].port$o[4].channel typename "\"ned.IdealChannel\""
par RGG.node[47].port$o[10].channel typename "\"ned.IdealChannel\""
par RGG.node[79].port$o[6].channel typename "\"ned.IdealChannel\""
par RGG.node[47].port$o[11].channel typename "\"ned.IdealChannel\""
par RGG.node[88].port$o[6].channel typename "\"ned.IdealChannel\""
par RGG.node[48].port$o[5].channel typename "\"ned.IdealChannel\""
par RGG.node[56].port$o[8].channel typename "\"ned.IdealChannel\""
par RGG.node[48].port$o[6].channel typename "\"ned.IdealChannel\""
par RGG.node[66].port$o[7].channel typename "\"ned.IdealChannel\""
par RGG.node[48].port$o[7].channel typename "\"ned.IdealChannel\""
par RGG.node[84].port$o[9].channel typename "\"ned.IdealChannel\""
par RGG.node[48].port$o[8].channel typename "\"ned.IdealChannel\""
par RGG.node[91].port$o[7].channel typename "\"ned.IdealChannel\""
par RGG.node[48].port$o[9].channel typename "\"ned.IdealChannel\""
par RGG.node[94].port$o[7].channel typename "\"ned.IdealChannel\""
par RGG.node[48].port$o[10].channel typename "\"ned.IdealChannel\""
par RGG.node[98].port$o[9].channel typename "\"ned.IdealChannel\""
par RGG.node[49].port$o[6].channel typename "\"ned.IdealChannel\""
par RGG.node[78].port$o[6].channel typename "\"ned.IdealChannel\""
par RGG.node[49].port$o[7].channel typename "\"ned.IdealChannel\""
par RGG.node[82].port$o[7].channel typename "\"ned.IdealChannel\""
par RGG.node[49].port$o[8].channel typename "\"ned.IdealChannel\""
par RGG.node[96].port$o[7].channel typename "\"ned.IdealChannel\""
par RGG.node[50].port$o[12].channel typename "\"ned.IdealChannel\""
par RGG.node[51].port$o[8].channel typename "\"ned.IdealChannel\""
par RGG.node[50].port$o[13].channel typename "\"ned.IdealChannel\""
par RGG.node[52].port$o[10].channel typename "\"ned.IdealChannel\""
par RGG.node[50].port$o[14].channel typename "\"ned.IdealChannel\""
par RGG.node[64].port$o[10].channel typename "\"ned.IdealChannel\""
par RGG.node[50].port$o[15].channel typename "\"ned.IdealChannel\""
par RGG.node[65].port$o[8].channel typename "\"ned.IdealChannel\""
par RGG.node[50].port$o[16].channel typename "\"ned.IdealChannel\""
par RGG.node[67].port$o[3].channel typename "\"ned.IdealChannel\""
par RGG.node[50].port$o[17].channel typename "\"ned.IdealChannel\""
par RGG.node[71].port$o[12].channel typename "\"ned.IdealChannel\""
par RGG.node[50].port$o[18].channel typename "\"ned.IdealChannel\""
par RGG.node[74].port$o[8].channel typename "\"ned.IdealChannel\""
par RGG.node[50].port$o[19].channel typename "\"ned.IdealChannel\""
par RGG.node[80].port$o[11].channel typename "\"ned.IdealChannel\""
par RGG.node[50].port$o[20].channel typename "\"ned.IdealChannel\""
par RGG.node[82].port$o[8].channel typename "\"ned.IdealChannel\""
par RGG.node[50].port$o[21].channel typename "\"ned.IdealChannel\""
par RGG.node[83].port$o[9].channel typename "\"ned.IdealChannel\""
par RGG.node[50].port$o[22].channel typename "\"ned.IdealChannel\""
par RGG.node[93].port$o[8].channel typename "\"ned.IdealChannel\""
par RGG.node[50].port$o[23].channel typename "\"ned.IdealChannel\""
par RGG.node[96].port$o[8].channel typename "\"ned.IdealChannel\""
par RGG.node[51].port$o[9].channel typename "\"ned.IdealChannel\""
par RGG.node[52].port$o[11].channel typename "\"ned.IdealChannel\""
par RGG.node[51].port$o[10].channel typename "\"ned.IdealChannel\""
par RGG.node[65].port$o[9].channel typename "\"ned.IdealChannel\""
par RGG.node[51].port$o[11].channel typename "\"ned.IdealChannel\""
par RGG.node[67].port$o[4].channel typename "\"ned.IdealChannel\""
par RGG.node[51].port$o[12].channel typename "\"ned.IdealChannel\""
par RGG.node[71].port$o[13].channel typename "\"ned.IdealChannel\""
par RGG.node[51].port$o[13].channel typename "\"ned.IdealChannel\""
par RGG.node[93].port$o[9].channel typename "\"ned.IdealChannel\""
par RGG.node[52].port$o[12].channel typename "\"ned.IdealChannel\""
par RGG.node[64].port$o[11].channel typename "\"ned.IdealChannel\""
par RGG.node[52].port$o[13].channel typename "\"ned.IdealChannel\""
par RGG.node[65].port$o[10].channel typename "\"ned.IdealChannel\""
par RGG.node[52].port$o[14].channel typename "\"ned.IdealChannel\""
par RGG.node[67].port$o[5].channel typename "\"ned.IdealChannel\""
par RGG.node[52].port$o[15].channel typename "\"ned.IdealChannel\""
par RGG.node[71].port$o[14].channel typename "\"ned.IdealChannel\""
par RGG.node[52].port$o[16].channel typename "\"ned.IdealChannel\""
par RGG.node[80].port$o[12].channel typename "\"ned.IdealChannel\""
par RGG.node[52].port$o[17].channel typename "\"ned.IdealChannel\""
par RGG.node[82].port$o[9].channel typename "\"ned.IdealChannel\""
par RGG.node[52].port$o[18].channel typename "\"ned.IdealChannel\""
par RGG.node[93].port$o[10].channel typename "\"ned.IdealChannel\""
par RGG.node[53].port$o[8].channel typename "\"ned.IdealChannel\""
par RGG.node[61].port$o[8].channel typename "\"ned.IdealChannel\""
par RGG.node[53].port$o[9].channel typename "\"ned.IdealChannel\""
par RGG.node[62].port$o[10].channel typename "\"ned.IdealChannel\""
par RGG.node[53].port$o[10].channel typename "\"ned.IdealChannel\""
par RGG.node[66].port$o[8].channel typename "\"ned.IdealChannel\""
par RGG.node[53].port$o[11].channel typename "\"ned.IdealChannel\""
par RGG.node[85].port$o[9].channel typename "\"ned.IdealChannel\""
par RGG.node[53].port$o[12].channel typename "\"ned.IdealChannel\""
par RGG.node[91].port$o[8].channel typename "\"ned.IdealChannel\""
par RGG.node[53].port$o[13].channel typename "\"ned.IdealChannel\""
par RGG.node[94].port$o[8].channel typename "\"ned.IdealChannel\""
par RGG.node[53].port$o[14].channel typename "\"ned.IdealChannel\""
par RGG.node[99].port$o[6].channel typename "\"ned.IdealChannel\""
par RGG.node[54].port$o[6].channel typename "\"ned.IdealChannel\""
par RGG.node[56].port$o[9].channel typename "\"ned.IdealChannel\""
par RGG.node[54].port$o[7].channel typename "\"ned.IdealChannel\""
par RGG.node[66].port$o[9].channel typename "\"ned.IdealChannel\""
par RGG.node[54].port$o[8].channel typename "\"ned.IdealChannel\""
par RGG.node[72].port$o[7].channel typename "\"ned.IdealChannel\""
par RGG.node[54].port$o[9].channel typename "\"ned.IdealChannel\""
par RGG.node[81].port$o[6].channel typename "\"ned.IdealChannel\""
par RGG.node[54].port$o[10].channel typename "\"ned.IdealChannel\""
par RGG.node[84].port$o[10].channel typename "\"ned.IdealChannel\""
par RGG.node[54].port$o[11].channel typename "\"ned.IdealChannel\""
[...]
par RGG.node[72].port$o[18].channel typename "\"ned.IdealChannel\""
par RGG.node[98].port$o[13].channel typename "\"ned.IdealChannel\""
par RGG.node[73].port$o[6].channel typename "\"ned.IdealChannel\""
par RGG.node[99].port$o[10].channel typename "\"ned.IdealChannel\""
par RGG.node[74].port$o[13].channel typename "\"ned.IdealChannel\""
par RGG.node[76].port$o[17].channel typename "\"ned.IdealChannel\""
par RGG.node[74].port$o[14].channel typename "\"ned.IdealChannel\""
par RGG.node[77].port$o[9].channel typename "\"ned.IdealChannel\""
par RGG.node[74].port$o[15].channel typename "\"ned.IdealChannel\""
par RGG.node[79].port$o[9].channel typename "\"ned.IdealChannel\""
par RGG.node[74].port$o[16].channel typename "\"ned.IdealChannel\""
par RGG.node[80].port$o[17].channel typename "\"ned.IdealChannel\""
par RGG.node[74].port$o[17].channel typename "\"ned.IdealChannel\""
par RGG.node[83].port$o[13].channel typename "\"ned.IdealChannel\""
par RGG.node[74].port$o[18].channel typename "\"ned.IdealChannel\""
par RGG.node[86].port$o[8].channel typename "\"ned.IdealChannel\""
par RGG.node[75].port$o[9].channel typename "\"ned.IdealChannel\""
par RGG.node[77].port$o[10].channel typename "\"ned.IdealChannel\""
par RGG.node[75].port$o[10].channel typename "\"ned.IdealChannel\""
par RGG.node[79].port$o[10].channel typename "\"ned.IdealChannel\""
par RGG.node[75].port$o[11].channel typename "\"ned.IdealChannel\""
par RGG.node[86].port$o[9].channel typename "\"ned.IdealChannel\""
par RGG.node[75].port$o[12].channel typename "\"ned.IdealChannel\""
par RGG.node[87].port$o[10].channel typename "\"ned.IdealChannel\""
par RGG.node[75].port$o[13].channel typename "\"ned.IdealChannel\""
par RGG.node[88].port$o[10].channel typename "\"ned.IdealChannel\""
par RGG.node[75].port$o[14].channel typename "\"ned.IdealChannel\""
par RGG.node[95].port$o[10].channel typename "\"ned.IdealChannel\""
par RGG.node[76].port$o[18].channel typename "\"ned.IdealChannel\""
par RGG.node[80].port$o[18].channel typename "\"ned.IdealChannel\""
par RGG.node[77].port$o[11].channel typename "\"ned.IdealChannel\""
par RGG.node[79].port$o[11].channel typename "\"ned.IdealChannel\""
par RGG.node[77].port$o[12].channel typename "\"ned.IdealChannel\""
par RGG.node[83].port$o[14].channel typename "\"ned.IdealChannel\""
par RGG.node[77].port$o[13].channel typename "\"ned.IdealChannel\""
par RGG.node[86].port$o[10].channel typename "\"ned.IdealChannel\""
par RGG.node[77].port$o[14].channel typename "\"ned.IdealChannel\""
par RGG.node[89].port$o[9].channel typename "\"ned.IdealChannel\""
par RGG.node[77].port$o[15].channel typename "\"ned.IdealChannel\""
par RGG.node[96].port$o[12].channel typename "\"ned.IdealChannel\""
par RGG.node[78].port$o[9].channel typename "\"ned.IdealChannel\""
par RGG.node[82].port$o[13].channel typename "\"ned.IdealChannel\""
par RGG.node[78].port$o[10].channel typename "\"ned.IdealChannel\""
par RGG.node[83].port$o[15].channel typename "\"ned.IdealChannel\""
par RGG.node[78].port$o[11].channel typename "\"ned.IdealChannel\""
par RGG.node[96].port$o[13].channel typename "\"ned.IdealChannel\""
par RGG.node[79].port$o[12].channel typename "\"ned.IdealChannel\""
par RGG.node[83].port$o[16].channel typename "\"ned.IdealChannel\""
par RGG.node[79].port$o[13].channel typename "\"ned.IdealChannel\""
par RGG.node[86].port$o[11].channel typename "\"ned.IdealChannel\""
par RGG.node[79].port$o[14].channel typename "\"ned.IdealChannel\""
par RGG.node[89].port$o[10].channel typename "\"ned.IdealChannel\""
par RGG.node[79].port$o[15].channel typename "\"ned.IdealChannel\""
par RGG.node[97].port$o[11].channel typename "\"ned.IdealChannel\""
par RGG.node[80].port$o[19].channel typename "\"ned.IdealChannel\""
par RGG.node[83].port$o[17].channel typename "\"ned.IdealChannel\""
par RGG.node[80].port$o[20].channel typename "\"ned.IdealChannel\""
par RGG.node[93].port$o[14].channel typename "\"ned.IdealChannel\""
par RGG.node[81].port$o[10].channel typename "\"ned.IdealChannel\""
par RGG.node[84].port$o[13].channel typename "\"ned.IdealChannel\""
par RGG.node[81].port$o[11].channel typename "\"ned.IdealChannel\""
par RGG.node[87].port$o[11].channel typename "\"ned.IdealChannel\""
par RGG.node[81].port$o[12].channel typename "\"ned.IdealChannel\""
par RGG.node[89].port$o[11].channel typename "\"ned.IdealChannel\""
par RGG.node[81].port$o[13].channel typename "\"ned.IdealChannel\""
par RGG.node[90].port$o[7].channel typename "\"ned.IdealChannel\""
par RGG.node[81].port$o[14].channel typename "\"ned.IdealChannel\""
par RGG.node[94].port$o[12].channel typename "\"ned.IdealChannel\""
par RGG.node[81].port$o[15].channel typename "\"ned.IdealChannel\""
par RGG.node[95].port$o[11].channel typename "\"ned.IdealChannel\""
par RGG.node[81].port$o[16].channel typename "\"ned.IdealChannel\""
par RGG.node[97].port$o[12].channel typename "\"ned.IdealChannel\""
par RGG.node[81].port$o[17].channel typename "\"ned.IdealChannel\""
par RGG.node[98].port$o[14].channel typename "\"ned.IdealChannel\""
par RGG.node[82].port$o[14].channel typename "\"ned.IdealChannel\""
par RGG.node[83].port$o[18].channel typename "\"ned.IdealChannel\""
par RGG.node[82].port$o[15].channel typename "\"ned.IdealChannel\""
par RGG.node[96].port$o[14].channel typename "\"ned.IdealChannel\""
par RGG.node[83].port$o[19].channel typename "\"ned.IdealChannel\""
par RGG.node[86].port$o[12].channel typename "\"ned.IdealChannel\""
par RGG.node[83].port$o[20].channel typename "\"ned.IdealChannel\""
par RGG.node[96].port$o[15].channel typename "\"ned.IdealChannel\""
par RGG.node[84].port$o[14].channel typename "\"ned.IdealChannel\""
par RGG.node[91].port$o[12].channel typename "\"ned.IdealChannel\""
par RGG.node[84].port$o[15].channel typename "\"ned.IdealChannel\""
par RGG.node[94].port$o[13].channel typename "\"ned.IdealChannel\""
par RGG.node[84].port$o[16].channel typename "\"ned.IdealChannel\""
par RGG.node[97].port$o[13].channel typename "\"ned.IdealChannel\""
par RGG.node[84].port$o[17].channel typename "\"ned.IdealChannel\""
par RGG.node[98].port$o[15].channel typename "\"ned.IdealChannel\""
par RGG.node[85].port$o[13].channel typename "\"ned.IdealChannel\""
par RGG.node[91].port$o[13].channel typename "\"ned.IdealChannel\""
par RGG.node[85].port$o[14].channel typename "\"ned.IdealChannel\""
par RGG.node[94].port$o[14].channel typename "\"ned.IdealChannel\""
par RGG.node[85].port$o[15].channel typename "\"ned.IdealChannel\""
par RGG.node[99].port$o[11].channel typename "\"ned.IdealChannel\""
par RGG.node[86].port$o[13].channel typename "\"ned.IdealChannel\""
par RGG.node[89].port$o[12].channel typename "\"ned.IdealChannel\""
par RGG.node[87].port$o[12].channel typename "\"ned.IdealChannel\""
par RGG.node[89].port$o[13].channel typename "\"ned.IdealChannel\""
par RGG.node[87].port$o[13].channel typename "\"ned.IdealChannel\""
par RGG.node[90].port$o[8].channel typename "\"ned.IdealChannel\""
par RGG.node[87].port$o[14].channel typename "\"ned.IdealChannel\""
par RGG.node[95].port$o[12].channel typename "\"ned.IdealChannel\""
par RGG.node[87].port$o[15].channel typename "\"ned.IdealChannel\""
par RGG.node[97].port$o[14].channel typename "\"ned.IdealChannel\""
par RGG.node[87].port$o[16].channel typename "\"ned.IdealChannel\""
par RGG.node[98].port$o[16].channel typename "\"ned.IdealChannel\""
par RGG.node[88].port$o[11].channel typename "\"ned.IdealChannel\""
par RGG.node[92].port$o[6].channel typename "\"ned.IdealChannel\""
par RGG.node[89].port$o[14].channel typename "\"ned.IdealChannel\""
par RGG.node[95].port$o[13].channel typename "\"ned.IdealChannel\""
par RGG.node[89].port$o[15].channel typename "\"ned.IdealChannel\""
par RGG.node[97].port$o[15].channel typename "\"ned.IdealChannel\""
par RGG.node[89].port$o[16].channel typename "\"ned.IdealChannel\""
par RGG.node[98].port$o[17].channel typename "\"ned.IdealChannel\""
par RGG.node[90].port$o[9].channel typename "\"ned.IdealChannel\""
par RGG.node[95].port$o[14].channel typename "\"ned.IdealChannel\""
par RGG.node[90].port$o[10].channel typename "\"ned.IdealChannel\""
par RGG.node[97].port$o[16].channel typename "\"ned.IdealChannel\""
par RGG.node[91].port$o[14].channel typename "\"ned.IdealChannel\""
par RGG.node[94].port$o[15].channel typename "\"ned.IdealChannel\""
par RGG.node[91].port$o[15].channel typename "\"ned.IdealChannel\""
par RGG.node[99].port$o[12].channel typename "\"ned.IdealChannel\""
par RGG.node[94].port$o[16].channel typename "\"ned.IdealChannel\""
par RGG.node[98].port$o[18].channel typename "\"ned.IdealChannel\""
par RGG.node[95].port$o[15].channel typename "\"ned.IdealChannel\""
par RGG.node[97].port$o[17].channel typename "\"ned.IdealChannel\""
par RGG.node[95].port$o[16].channel typename "\"ned.IdealChannel\""
par RGG.node[98].port$o[19].channel typename "\"ned.IdealChannel\""
par RGG.node[97].port$o[18].channel typename "\"ned.IdealChannel\""
par RGG.node[98].port$o[20].channel typename "\"ned.IdealChannel\""
par RGG.node[0] typename "\"randomw.Node\""
par RGG.node[0] xCor 0.971139
par RGG.node[0] yCor 0.0342898
par RGG.node[1] typename "\"randomw.Node\""
par RGG.node[1] xCor 0.396295
par RGG.node[1] yCor 0.882249
par RGG.node[2] typename "\"randomw.Node\""
par RGG.node[2] xCor 0.016488
par RGG.node[2] yCor 0.931731
par RGG.node[3] typename "\"randomw.Node\""
par RGG.node[3] xCor 0.71926
par RGG.node[3] yCor 0.954563
par RGG.node[4] typename "\"randomw.Node\""
par RGG.node[4] xCor 0.812943
par RGG.node[4] yCor 0.283685
par RGG.node[5] typename "\"randomw.Node\""
par RGG.node[5] xCor 0.841595
par RGG.node[5] yCor 0.107429
par RGG.node[6] typename "\"randomw.Node\""
par RGG.node[6] xCor 0.319653
par RGG.node[6] yCor 0.203239
par RGG.node[7] typename "\"randomw.Node\""
par RGG.node[7] xCor 0.226864
par RGG.node[7] yCor 0.626062
par RGG.node[8] typename "\"randomw.Node\""
par RGG.node[8] xCor 0.0970435
par RGG.node[8] yCor 0.742237
par RGG.node[9] typename "\"randomw.Node\""
par RGG.node[9] xCor 0.405705
par RGG.node[9] yCor 0.901059
par RGG.node[10] typename "\"randomw.Node\""
par RGG.node[10] xCor 0.749964
par RGG.node[10] yCor 0.466401
par RGG.node[11] typename "\"randomw.Node\""
par RGG.node[11] xCor 0.43861
par RGG.node[11] yCor 0.180846
par RGG.node[12] typename "\"randomw.Node\""
par RGG.node[12] xCor 0.497754
par RGG.node[12] yCor 0.236629
par RGG.node[13] typename "\"randomw.Node\""
par RGG.node[13] xCor 0.865287
par RGG.node[13] yCor 0.558737
par RGG.node[14] typename "\"randomw.Node\""
par RGG.node[14] xCor 0.722145
par RGG.node[14] yCor 0.795073
par RGG.node[15] typename "\"randomw.Node\""
par RGG.node[15] xCor 0.792128
par RGG.node[15] yCor 0.292092
par RGG.node[16] typename "\"randomw.Node\""
par RGG.node[16] xCor 0.104227
par RGG.node[16] yCor 0.025029
par RGG.node[17] typename "\"randomw.Node\""
par RGG.node[17] xCor 0.581931
par RGG.node[17] yCor 0.300633
par RGG.node[18] typename "\"randomw.Node\""
par RGG.node[18] xCor 0.611754
par RGG.node[18] yCor 0.950692
par RGG.node[19] typename "\"randomw.Node\""
par RGG.node[19] xCor 0.0894308
par RGG.node[19] yCor 0.987008
par RGG.node[20] typename "\"randomw.Node\""
par RGG.node[20] xCor 0.817067
par RGG.node[20] yCor 0.293203
par RGG.node[21] typename "\"randomw.Node\""
par RGG.node[21] xCor 0.0581887
par RGG.node[21] yCor 0.522869
par RGG.node[22] typename "\"randomw.Node\""
par RGG.node[22] xCor 0.418659
par RGG.node[22] yCor 0.886927
par RGG.node[23] typename "\"randomw.Node\""
par RGG.node[23] xCor 0.625981
par RGG.node[23] yCor 0.405173
par RGG.node[24] typename "\"randomw.Node\""
par RGG.node[24] xCor 0.746167
par RGG.node[24] yCor 0.760185
par RGG.node[25] typename "\"randomw.Node\""
par RGG.node[25] xCor 0.713878
par RGG.node[25] yCor 0.607191
par RGG.node[26] typename "\"randomw.Node\""
par RGG.node[26] xCor 0.256063
par RGG.node[26] yCor 0.668178
par RGG.node[27] typename "\"randomw.Node\""
par RGG.node[27] xCor 0.589847
par RGG.node[27] yCor 0.831748
par RGG.node[28] typename "\"randomw.Node\""
par RGG.node[28] xCor 0.41048
par RGG.node[28] yCor 0.34301
par RGG.node[29] typename "\"randomw.Node\""
par RGG.node[29] xCor 0.905324
par RGG.node[29] yCor 0.490756
par RGG.node[30] typename "\"randomw.Node\""
par RGG.node[30] xCor 0.25905
par RGG.node[30] yCor 0.936947
par RGG.node[31] typename "\"randomw.Node\""
par RGG.node[31] xCor 0.406509
par RGG.node[31] yCor 0.109064
par RGG.node[32] typename "\"randomw.Node\""
par RGG.node[32] xCor 0.886484
par RGG.node[32] yCor 0.0499826
par RGG.node[33] typename "\"randomw.Node\""
par RGG.node[33] xCor 0.600022
par RGG.node[33] yCor 0.340655
par RGG.node[34] typename "\"randomw.Node\""
par RGG.node[34] xCor 0.801352
par RGG.node[34] yCor 0.953328
par RGG.node[35] typename "\"randomw.Node\""
par RGG.node[35] xCor 0.034203
par RGG.node[35] yCor 0.095831
par RGG.node[36] typename "\"randomw.Node\""
par RGG.node[36] xCor 0.817563
par RGG.node[36] yCor 0.610635
par RGG.node[37] typename "\"randomw.Node\""
par RGG.node[37] xCor 0.110243
par RGG.node[37] yCor 0.385839
par RGG.node[38] typename "\"randomw.Node\""
par RGG.node[38] xCor 0.0734007
par RGG.node[38] yCor 0.772281
par RGG.node[39] typename "\"randomw.Node\""
par RGG.node[39] xCor 0.445986
par RGG.node[39] yCor 0.552901
par RGG.node[40] typename "\"randomw.Node\""
par RGG.node[40] xCor 0.858482
par RGG.node[40] yCor 0.663605
par RGG.node[41] typename "\"randomw.Node\""
par RGG.node[41] xCor 0.333989
par RGG.node[41] yCor 0.000623626
par RGG.node[42] typename "\"randomw.Node\""
par RGG.node[42] xCor 0.114006
par RGG.node[42] yCor 0.0983253
par RGG.node[43] typename "\"randomw.Node\""
par RGG.node[43] xCor 0.65655
par RGG.node[43] yCor 0.122731
par RGG.node[44] typename "\"randomw.Node\""
par RGG.node[44] xCor 0.867032
par RGG.node[44] yCor 0.287989
par RGG.node[45] typename "\"randomw.Node\""
par RGG.node[45] xCor 0.0679143
par RGG.node[45] yCor 0.474763
par RGG.node[46] typename "\"randomw.Node\""
par RGG.node[46] xCor 0.00770542
par RGG.node[46] yCor 0.182228
par RGG.node[47] typename "\"randomw.Node\""
par RGG.node[47] xCor 0.0569185
par RGG.node[47] yCor 0.328902
par RGG.node[48] typename "\"randomw.Node\""
par RGG.node[48] xCor 0.298362
par RGG.node[48] yCor 0.929459
par RGG.node[49] typename "\"randomw.Node\""
par RGG.node[49] xCor 0.323763
par RGG.node[49] yCor 0.0329553
par RGG.node[50] typename "\"randomw.Node\""
par RGG.node[50] xCor 0.687702
par RGG.node[50] yCor 0.188444
par RGG.node[51] typename "\"randomw.Node\""
par RGG.node[51] xCor 0.823429
par RGG.node[51] yCor 0.116318
par RGG.node[52] typename "\"randomw.Node\""
par RGG.node[52] xCor 0.718955
par RGG.node[52] yCor 0.160081
par RGG.node[53] typename "\"randomw.Node\""
par RGG.node[53] xCor 0.566823
par RGG.node[53] yCor 0.833047
par RGG.node[54] typename "\"randomw.Node\""
par RGG.node[54] xCor 0.194649
par RGG.node[54] yCor 0.677738
par RGG.node[55] typename "\"randomw.Node\""
par RGG.node[55] xCor 0.00107651
par RGG.node[55] yCor 0.904719
par RGG.node[56] typename "\"randomw.Node\""
par RGG.node[56] xCor 0.312918
par RGG.node[56] yCor 0.784352
par RGG.node[57] typename "\"randomw.Node\""
par RGG.node[57] xCor 0.544706
par RGG.node[57] yCor 0.398754
par RGG.node[58] typename "\"randomw.Node\""
par RGG.node[58] xCor 0.906734
par RGG.node[58] yCor 0.38963
par RGG.node[59] typename "\"randomw.Node\""
par RGG.node[59] xCor 0.042264
par RGG.node[59] yCor 0.2788
par RGG.node[60] typename "\"randomw.Node\""
par RGG.node[60] xCor 0.846518
par RGG.node[60] yCor 0.800638
par RGG.node[61] typename "\"randomw.Node\""
par RGG.node[61] xCor 0.601444
par RGG.node[61] yCor 0.965886
par RGG.node[62] typename "\"randomw.Node\""
par RGG.node[62] xCor 0.79835
par RGG.node[62] yCor 0.788095
par RGG.node[63] typename "\"randomw.Node\""
par RGG.node[63] xCor 0.0475165
par RGG.node[63] yCor 0.377428
par RGG.node[64] typename "\"randomw.Node\""
par RGG.node[64] xCor 0.552989
par RGG.node[64] yCor 0.241248
par RGG.node[65] typename "\"randomw.Node\""
par RGG.node[65] xCor 0.834242
par RGG.node[65] yCor 0.157925
par RGG.node[66] typename "\"randomw.Node\""
par RGG.node[66] xCor 0.420332
par RGG.node[66] yCor 0.720133
par RGG.node[67] typename "\"randomw.Node\""
par RGG.node[67] xCor 0.663646
par RGG.node[67] yCor 0.0406325
par RGG.node[68] typename "\"randomw.Node\""
par RGG.node[68] xCor 0.0685479
par RGG.node[68] yCor 0.247969
par RGG.node[69] typename "\"randomw.Node\""
par RGG.node[69] xCor 0.622648
par RGG.node[69] yCor 0.56887
par RGG.node[70] typename "\"randomw.Node\""
par RGG.node[70] xCor 0.834247
par RGG.node[70] yCor 0.661999
par RGG.node[71] typename "\"randomw.Node\""
par RGG.node[71] xCor 0.683612
par RGG.node[71] yCor 0.185006
par RGG.node[72] typename "\"randomw.Node\""
par RGG.node[72] xCor 0.257626
par RGG.node[72] yCor 0.493668
par RGG.node[73] typename "\"randomw.Node\""
par RGG.node[73] xCor 0.879636
par RGG.node[73] yCor 0.943831
par RGG.node[74] typename "\"randomw.Node\""
par RGG.node[74] xCor 0.537895
par RGG.node[74] yCor 0.38152
par RGG.node[75] typename "\"randomw.Node\""
par RGG.node[75] xCor 0.121211
par RGG.node[75] yCor 0.363263
par RGG.node[76] typename "\"randomw.Node\""
par RGG.node[76] xCor 0.727682
par RGG.node[76] yCor 0.481058
par RGG.node[77] typename "\"randomw.Node\""
par RGG.node[77] xCor 0.328082
par RGG.node[77] yCor 0.297919
par RGG.node[78] typename "\"randomw.Node\""
par RGG.node[78] xCor 0.448913
par RGG.node[78] yCor 0.0614461
par RGG.node[79] typename "\"randomw.Node\""
par RGG.node[79] xCor 0.301134
par RGG.node[79] yCor 0.380941
par RGG.node[80] typename "\"randomw.Node\""
par RGG.node[80] xCor 0.639558
par RGG.node[80] yCor 0.347698
par RGG.node[81] typename "\"randomw.Node\""
par RGG.node[81] xCor 0.25735
par RGG.node[81] yCor 0.670259
par RGG.node[82] typename "\"randomw.Node\""
par RGG.node[82] xCor 0.489825
par RGG.node[82] yCor 0.0889953
par RGG.node[83] typename "\"randomw.Node\""
par RGG.node[83] xCor 0.486583
par RGG.node[83] yCor 0.28799
par RGG.node[84] typename "\"randomw.Node\""
par RGG.node[84] xCor 0.284383
par RGG.node[84] yCor 0.856918
par RGG.node[85] typename "\"randomw.Node\""
par RGG.node[85] xCor 0.595829
par RGG.node[85] yCor 0.868929
par RGG.node[86] typename "\"randomw.Node\""
par RGG.node[86] xCor 0.331386
par RGG.node[86] yCor 0.368504
par RGG.node[87] typename "\"randomw.Node\""
par RGG.node[87] xCor 0.0886493
par RGG.node[87] yCor 0.589667
par RGG.node[88] typename "\"randomw.Node\""
par RGG.node[88] xCor 0.0564267
par RGG.node[88] yCor 0.274841
par RGG.node[89] typename "\"randomw.Node\""
par RGG.node[89] xCor 0.309677
par RGG.node[89] yCor 0.537629
par RGG.node[90] typename "\"randomw.Node\""
par RGG.node[90] xCor 0.0363126
par RGG.node[90] yCor 0.653478
par RGG.node[91] typename "\"randomw.Node\""
par RGG.node[91] xCor 0.475024
par RGG.node[91] yCor 0.934591
par RGG.node[92] typename "\"randomw.Node\""
par RGG.node[92] xCor 0.0540389
par RGG.node[92] yCor 0.0557151
par RGG.node[93] typename "\"randomw.Node\""
par RGG.node[93] xCor 0.831735
par RGG.node[93] yCor 0.229616
par RGG.node[94] typename "\"randomw.Node\""
par RGG.node[94] xCor 0.372403
par RGG.node[94] yCor 0.880746
par RGG.node[95] typename "\"randomw.Node\""
par RGG.node[95] xCor 0.127476
par RGG.node[95] yCor 0.602264
par RGG.node[96] typename "\"randomw.Node\""
par RGG.node[96] xCor 0.459368
par RGG.node[96] yCor 0.0896752
par RGG.node[97] typename "\"randomw.Node\""
par RGG.node[97] xCor 0.238607
par RGG.node[97] yCor 0.622168
par RGG.node[98] typename "\"randomw.Node\""
par RGG.node[98] xCor 0.279867
par RGG.node[98] yCor 0.727808
par RGG.node[99] typename "\"randomw.Node\""
par RGG.node[99] xCor 0.711033
par RGG.node[99] yCor 0.922442
par RGG.host typename "\"randomw.Host\""
par RGG.host startNodeIndex 1
attr mutable ""
par RGG.host startNode 11
par RGG typename "\"randomw.simulations.RGG\""
par RGG numNodes 100
par RGG rc 0.25
par RGG enableDuplication true
attr mutable ""
par RGG noBacktracking false
attr mutable ""
par RGG numWalkers 1

