version 3
run General-67-20250904-14:13:13-15311
attr configname General
attr datetime 20250904-14:13:13
attr datetimef 20250904-141313
attr experiment General
attr inifile omnetpp.ini
attr iterationvars ""
attr iterationvarsd ""
attr iterationvarsf ""
attr measurement ""
attr network TaxiNetwork
attr processid 15311
attr repetition 67
attr replication #67
attr resultdir results
attr runnumber 67
attr seedset 67
config network TaxiNetwork
config seed-set 67
config num-rngs 1
config sim-time-limit 10s
config repeat 500
config *.numWalkers 1
config *.enableDuplication true
config *.rc 700
config **.node[0].xCor 2933
config **.node[0].yCor 2747
config **.node[1].xCor 2919
config **.node[1].yCor 2817
config **.node[2].xCor 2910
config **.node[2].yCor 2861
config **.node[3].xCor 2429
config **.node[3].yCor 2851
config **.node[4].xCor 2908
config **.node[4].yCor 2714
config **.node[5].xCor 2606
config **.node[5].yCor 2722
config **.node[6].xCor 2575
config **.node[6].yCor 2753
config **.node[7].xCor 2654
config **.node[7].yCor 2513
config **.node[8].xCor 2773
config **.node[8].yCor 2580
config **.node[9].xCor 3043
config **.node[9].yCor 2780
config **.node[10].xCor 3020
config **.node[10].yCor 2813
config **.node[11].xCor 2599
config **.node[11].yCor 2300
config **.node[12].xCor 2917
config **.node[12].yCor 2698
config **.node[13].xCor 2625
config **.node[13].yCor 2641
config **.node[14].xCor 2604
config **.node[14].yCor 2790
config **.node[15].xCor 2786
config **.node[15].yCor 3082
config **.node[16].xCor 2603
config **.node[16].yCor 2802
config **.node[17].xCor 2637
config **.node[17].yCor 2869
config **.node[18].xCor 2675
config **.node[18].yCor 2955
config **.node[19].xCor 2845
config **.node[19].yCor 2937
config **.node[20].xCor 2860
config **.node[20].yCor 2888
config **.node[21].xCor 2843
config **.node[21].yCor 4158
config **.node[22].xCor 2852
config **.node[22].yCor 4017
config **.node[23].xCor 2892
config **.node[23].yCor 4961
config **.node[24].xCor 2313
config **.node[24].yCor 3993
config **.node[25].xCor 2891
config **.node[25].yCor 4959
config **.node[26].xCor 2370
config **.node[26].yCor 4050
config **.node[27].xCor 2788
config **.node[27].yCor 3958
config **.node[28].xCor 2819
config **.node[28].yCor 4428
config **.node[29].xCor 2790
config **.node[29].yCor 3761
config **.node[30].xCor 2809
config **.node[30].yCor 2908
config **.node[31].xCor 2919
config **.node[31].yCor 3575
config **.node[32].xCor 2946
config **.node[32].yCor 3466
config **.node[33].xCor 2911
config **.node[33].yCor 3453
config **.node[34].xCor 2370
config **.node[34].yCor 3656
config **.node[35].xCor 2438
config **.node[35].yCor 3738
config **.node[36].xCor 2737
config **.node[36].yCor 3570
config **.node[37].xCor 2921
config **.node[37].yCor 3698
config **.node[38].xCor 2907
config **.node[38].yCor 5197
config **.node[39].xCor 2860
config **.node[39].yCor 3852
config **.node[40].xCor 2927
config **.node[40].yCor 3684
config **.node[41].xCor 3023
config **.node[41].yCor 5313
config **.node[42].xCor 3220
config **.node[42].yCor 5811
config **.node[43].xCor 3432
config **.node[43].yCor 5715
config **.node[44].xCor 2754
config **.node[44].yCor 2463
config **.node[45].xCor 2646
config **.node[45].yCor 2673
config **.node[46].xCor 3051
config **.node[46].yCor 2792
config **.node[47].xCor 1666
config **.node[47].yCor 3697
config **.node[48].xCor 1662
config **.node[48].yCor 3694
config **.node[49].xCor 1664
config **.node[49].yCor 3667
config **.node[50].xCor 1660
config **.node[50].yCor 3664
config **.node[51].xCor 1710
config **.node[51].yCor 3573
config **.node[52].xCor 2082
config **.node[52].yCor 2650
config **.node[53].xCor 2086
config **.node[53].yCor 2657
config **.node[54].xCor 2257
config **.node[54].yCor 3232
config **.node[55].xCor 2258
config **.node[55].yCor 3225
config **.node[56].xCor 1926
config **.node[56].yCor 2570
config **.node[57].xCor 1926
config **.node[57].yCor 2576
config **.node[58].xCor 2104
config **.node[58].yCor 1758
config **.node[59].xCor 1957
config **.node[59].yCor 1826
config **.node[60].xCor 3473
config **.node[60].yCor 1523
config **.node[61].xCor 3335
config **.node[61].yCor 1726
config **.node[62].xCor 3478
config **.node[62].yCor 1517
config **.node[63].xCor 3386
config **.node[63].yCor 2119
config **.node[64].xCor 3474
config **.node[64].yCor 1762
config **.node[65].xCor 3797
config **.node[65].yCor 2099
config **.node[66].xCor 3642
config **.node[66].yCor 2136
config **.node[67].xCor 3481
config **.node[67].yCor 2334
config **.node[68].xCor 3088
config **.node[68].yCor 1505
config **.node[69].xCor 3037
config **.node[69].yCor 1693
config **.node[70].xCor 3026
config **.node[70].yCor 1700
config **.node[71].xCor 3019
config **.node[71].yCor 669
config **.node[72].xCor 3513
config **.node[72].yCor 1358
config **.node[73].xCor 3545
config **.node[73].yCor 1230
config **.node[74].xCor 4228
config **.node[74].yCor 4220
config **.node[75].xCor 3379
config **.node[75].yCor 1207
config **.node[76].xCor 3596
config **.node[76].yCor 963
config **.node[77].xCor 3637
config **.node[77].yCor 1188
config **.node[78].xCor 3759
config **.node[78].yCor 1030
config **.node[79].xCor 2918
config **.node[79].yCor 1455
config **.node[80].xCor 2711
config **.node[80].yCor 1297
config **.node[81].xCor 439
config **.node[81].yCor 1623
config **.node[82].xCor 2857
config **.node[82].yCor 3581
config **.node[83].xCor 2858
config **.node[83].yCor 3584
config **.node[84].xCor 2999
config **.node[84].yCor 2636
config **.node[85].xCor 2905
config **.node[85].yCor 2778
config **.node[86].xCor 2653
config **.node[86].yCor 2845
config **.node[87].xCor 2864
config **.node[87].yCor 2836
config **.node[88].xCor 2426
config **.node[88].yCor 2892
config **.node[89].xCor 2964
config **.node[89].yCor 2804
config **.node[90].xCor 2586
config **.node[90].yCor 3135
config **.node[91].xCor 2864
config **.node[91].yCor 2980
config **.node[92].xCor 2527
config **.node[92].yCor 3219
config **.node[93].xCor 2863
config **.node[93].yCor 3142
config **.node[94].xCor 2485
config **.node[94].yCor 3269
config **.node[95].xCor 2653
config **.node[95].yCor 1065
config **.node[96].xCor 4062
config **.node[96].yCor 400
config **.node[97].xCor 5762
config **.node[97].yCor 3023
config **.node[98].xCor 1414
config **.node[98].yCor 3461
config **.node[99].xCor 2911
config **.node[99].yCor 1737
config **.node[100].xCor 2595
config **.node[100].yCor 2299
config **.node[101].xCor 2702
config **.node[101].yCor 3419
config **.node[102].xCor 2813
config **.node[102].yCor 3307
config **.node[103].xCor 2638
config **.node[103].yCor 2258
config **.node[104].xCor 2590
config **.node[104].yCor 3125
config **.node[105].xCor 1856
config **.node[105].yCor 2990
config **.node[106].xCor 1894
config **.node[106].yCor 2239
config **.node[107].xCor 383
config **.node[107].yCor 1251
config **.node[108].xCor 3447
config **.node[108].yCor 5489
config **.node[109].xCor 3450
config **.node[109].yCor 5697
config **.node[110].xCor 2719
config **.node[110].yCor 1920
config **.node[111].xCor 2085
config **.node[111].yCor 2389
config **.node[112].xCor 1910
config **.node[112].yCor 2548
config **.node[113].xCor 2069
config **.node[113].yCor 2050
config **.node[114].xCor 2184
config **.node[114].yCor 2209
config **.node[115].xCor 2278
config **.node[115].yCor 2390
config **.node[116].xCor 2249
config **.node[116].yCor 2299
config **.node[117].xCor 2356
config **.node[117].yCor 2303
config **.node[118].xCor 2192
config **.node[118].yCor 2475
config **.node[119].xCor 1720
config **.node[119].yCor 2911
config **.node[120].xCor 2400
config **.node[120].yCor 2887
config **.node[121].xCor 3344
config **.node[121].yCor 1890
config **.node[122].xCor 3136
config **.node[122].yCor 2418
config **.node[123].xCor 3243
config **.node[123].yCor 2525
config **.node[124].xCor 2396
config **.node[124].yCor 1267
config **.node[125].xCor 467
config **.node[125].yCor 1875
config **.node[126].xCor 3506
config **.node[126].yCor 1221
config **.node[127].xCor 1034
config **.node[127].yCor 1474
config **.node[128].xCor 2908
config **.node[128].yCor 1784
config **.node[129].xCor 2876
config **.node[129].yCor 1761
config **.node[130].xCor 2849
config **.node[130].yCor 1795
config **.node[131].xCor 3029
config **.node[131].yCor 1859
config **.node[132].xCor 2924
config **.node[132].yCor 1848
config **.node[133].xCor 3493
config **.node[133].yCor 1559
config **.node[134].xCor 2760
config **.node[134].yCor 1761
config **.node[135].xCor 1644
config **.node[135].yCor 3755
config **.node[136].xCor 1463
config **.node[136].yCor 3432
config **.node[137].xCor 2595
config **.node[137].yCor 2849
config **.node[138].xCor 2581
config **.node[138].yCor 2867
config **.node[139].xCor 2524
config **.node[139].yCor 2911
config **.node[140].xCor 2570
config **.node[140].yCor 2924
config **.node[141].xCor 2676
config **.node[141].yCor 2890
config **.node[142].xCor 2666
config **.node[142].yCor 2876
config **.node[143].xCor 3735
config **.node[143].yCor 1726
config **.node[144].xCor 1637
config **.node[144].yCor 3438

vector 0 TaxiNetwork.node[3] visitedPerTimestep ETV
vector 1 TaxiNetwork.node[118] visitedPerTimestep ETV
vector 2 TaxiNetwork.node[18] visitedPerTimestep ETV
vector 3 TaxiNetwork.node[5] visitedPerTimestep ETV
vector 4 TaxiNetwork.node[8] visitedPerTimestep ETV
vector 5 TaxiNetwork.node[53] visitedPerTimestep ETV
vector 6 TaxiNetwork.node[17] visitedPerTimestep ETV
vector 7 TaxiNetwork.node[120] visitedPerTimestep ETV
vector 8 TaxiNetwork.node[44] visitedPerTimestep ETV
vector 9 TaxiNetwork.node[45] visitedPerTimestep ETV
vector 10 TaxiNetwork.node[102] visitedPerTimestep ETV
vector 11 TaxiNetwork.node[139] visitedPerTimestep ETV
vector 12 TaxiNetwork.node[85] visitedPerTimestep ETV
vector 13 TaxiNetwork.node[88] visitedPerTimestep ETV
vector 14 TaxiNetwork.node[137] visitedPerTimestep ETV
vector 15 TaxiNetwork.node[90] visitedPerTimestep ETV
vector 16 TaxiNetwork.node[140] visitedPerTimestep ETV
vector 17 TaxiNetwork.node[103] visitedPerTimestep ETV
vector 18 TaxiNetwork.node[123] visitedPerTimestep ETV
vector 19 TaxiNetwork.node[121] visitedPerTimestep ETV
vector 20 TaxiNetwork.node[70] visitedPerTimestep ETV
vector 21 TaxiNetwork.node[131] visitedPerTimestep ETV
vector 22 TaxiNetwork.node[129] visitedPerTimestep ETV
vector 23 TaxiNetwork.node[69] visitedPerTimestep ETV
vector 24 TaxiNetwork.node[62] visitedPerTimestep ETV
vector 25 TaxiNetwork.node[72] visitedPerTimestep ETV
vector 26 TaxiNetwork.node[64] visitedPerTimestep ETV
vector 27 TaxiNetwork.node[134] visitedPerTimestep ETV
vector 28 TaxiNetwork.node[124] visitedPerTimestep ETV
vector 29 TaxiNetwork.node[79] visitedPerTimestep ETV
vector 30 TaxiNetwork.node[133] visitedPerTimestep ETV
vector 31 TaxiNetwork.node[143] visitedPerTimestep ETV
vector 32 TaxiNetwork.node[60] visitedPerTimestep ETV
vector 33 TaxiNetwork.node[132] visitedPerTimestep ETV
vector 34 TaxiNetwork.node[100] visitedPerTimestep ETV
vector 35 TaxiNetwork.node[116] visitedPerTimestep ETV
vector 36 TaxiNetwork.node[52] visitedPerTimestep ETV
vector 37 TaxiNetwork.node[119] visitedPerTimestep ETV
vector 38 TaxiNetwork.node[112] visitedPerTimestep ETV
vector 39 TaxiNetwork.node[115] visitedPerTimestep ETV
vector 40 TaxiNetwork.node[111] visitedPerTimestep ETV
vector 41 TaxiNetwork.node[98] visitedPerTimestep ETV
vector 42 TaxiNetwork.node[50] visitedPerTimestep ETV
vector 43 TaxiNetwork.node[135] visitedPerTimestep ETV
vector 44 TaxiNetwork.node[48] visitedPerTimestep ETV
vector 45 TaxiNetwork.node[49] visitedPerTimestep ETV
vector 46 TaxiNetwork.node[136] visitedPerTimestep ETV
vector 47 TaxiNetwork.node[51] visitedPerTimestep ETV
vector 48 TaxiNetwork.node[54] visitedPerTimestep ETV
vector 49 TaxiNetwork.node[84] visitedPerTimestep ETV
vector 50 TaxiNetwork.node[82] visitedPerTimestep ETV
vector 51 TaxiNetwork.node[101] visitedPerTimestep ETV
vector 52 TaxiNetwork.node[15] visitedPerTimestep ETV
vector 53 TaxiNetwork.node[94] visitedPerTimestep ETV
vector 54 TaxiNetwork.node[14] visitedPerTimestep ETV
vector 55 TaxiNetwork.node[86] visitedPerTimestep ETV
vector 56 TaxiNetwork.node[30] visitedPerTimestep ETV
vector 57 TaxiNetwork.node[104] visitedPerTimestep ETV
vector 58 TaxiNetwork.node[4] visitedPerTimestep ETV
vector 59 TaxiNetwork.node[11] visitedPerTimestep ETV
vector 60 TaxiNetwork.node[128] visitedPerTimestep ETV
vector 61 TaxiNetwork.node[122] visitedPerTimestep ETV
vector 62 TaxiNetwork.node[89] visitedPerTimestep ETV
vector 63 TaxiNetwork.node[142] visitedPerTimestep ETV
vector 64 TaxiNetwork.node[92] visitedPerTimestep ETV
vector 65 TaxiNetwork.node[0] visitedPerTimestep ETV
vector 66 TaxiNetwork.node[46] visitedPerTimestep ETV
vector 67 TaxiNetwork.node[12] visitedPerTimestep ETV
vector 68 TaxiNetwork.node[110] visitedPerTimestep ETV
vector 69 TaxiNetwork.node[99] visitedPerTimestep ETV
vector 70 TaxiNetwork.node[114] visitedPerTimestep ETV
vector 71 TaxiNetwork.node[67] visitedPerTimestep ETV
vector 72 TaxiNetwork.node[19] visitedPerTimestep ETV
vector 73 TaxiNetwork.node[91] visitedPerTimestep ETV
vector 74 TaxiNetwork.node[93] visitedPerTimestep ETV
vector 75 TaxiNetwork.node[32] visitedPerTimestep ETV
vector 76 TaxiNetwork.node[138] visitedPerTimestep ETV
vector 77 TaxiNetwork.node[113] visitedPerTimestep ETV
vector 78 TaxiNetwork.node[56] visitedPerTimestep ETV
vector 79 TaxiNetwork.node[144] visitedPerTimestep ETV
vector 80 TaxiNetwork.node[141] visitedPerTimestep ETV
vector 81 TaxiNetwork.node[16] visitedPerTimestep ETV
vector 82 TaxiNetwork.node[2] visitedPerTimestep ETV
vector 83 TaxiNetwork.node[36] visitedPerTimestep ETV
vector 84 TaxiNetwork.node[34] visitedPerTimestep ETV
vector 85 TaxiNetwork.node[35] visitedPerTimestep ETV
vector 86 TaxiNetwork.node[13] visitedPerTimestep ETV
vector 87 TaxiNetwork.node[31] visitedPerTimestep ETV
vector 88 TaxiNetwork.node[83] visitedPerTimestep ETV
vector 89 TaxiNetwork.node[1] visitedPerTimestep ETV
vector 90 TaxiNetwork.node[29] visitedPerTimestep ETV
vector 91 TaxiNetwork.node[21] visitedPerTimestep ETV
vector 92 TaxiNetwork.node[22] visitedPerTimestep ETV
vector 93 TaxiNetwork.node[7] visitedPerTimestep ETV
vector 94 TaxiNetwork.node[117] visitedPerTimestep ETV
vector 95 TaxiNetwork.node[6] visitedPerTimestep ETV
vector 96 TaxiNetwork.node[57] visitedPerTimestep ETV
vector 97 TaxiNetwork.node[55] visitedPerTimestep ETV
vector 98 TaxiNetwork.node[87] visitedPerTimestep ETV
vector 99 TaxiNetwork.node[58] visitedPerTimestep ETV
vector 100 TaxiNetwork.node[130] visitedPerTimestep ETV
vector 101 TaxiNetwork.node[68] visitedPerTimestep ETV
vector 102 TaxiNetwork.node[105] visitedPerTimestep ETV
vector 103 TaxiNetwork.node[106] visitedPerTimestep ETV
vector 104 TaxiNetwork.node[26] visitedPerTimestep ETV
vector 105 TaxiNetwork.node[27] visitedPerTimestep ETV
vector 106 TaxiNetwork.node[37] visitedPerTimestep ETV
vector 107 TaxiNetwork.node[20] visitedPerTimestep ETV
vector 108 TaxiNetwork.node[10] visitedPerTimestep ETV
vector 109 TaxiNetwork.node[9] visitedPerTimestep ETV
vector 110 TaxiNetwork.node[63] visitedPerTimestep ETV
vector 111 TaxiNetwork.node[65] visitedPerTimestep ETV
vector 112 TaxiNetwork.node[40] visitedPerTimestep ETV
vector 113 TaxiNetwork.node[33] visitedPerTimestep ETV
vector 114 TaxiNetwork.node[66] visitedPerTimestep ETV
vector 115 TaxiNetwork.node[75] visitedPerTimestep ETV
vector 116 TaxiNetwork.node[61] visitedPerTimestep ETV
vector 117 TaxiNetwork.node[74] visitedPerTimestep ETV
vector 118 TaxiNetwork.node[39] visitedPerTimestep ETV
vector 119 TaxiNetwork.node[108] visitedPerTimestep ETV
vector 120 TaxiNetwork.node[42] visitedPerTimestep ETV
vector 121 TaxiNetwork.node[38] visitedPerTimestep ETV
vector 122 TaxiNetwork.node[126] visitedPerTimestep ETV
vector 123 TaxiNetwork.node[95] visitedPerTimestep ETV
vector 124 TaxiNetwork.node[76] visitedPerTimestep ETV
vector 125 TaxiNetwork.node[73] visitedPerTimestep ETV
vector 126 TaxiNetwork.node[71] visitedPerTimestep ETV
vector 127 TaxiNetwork.node[77] visitedPerTimestep ETV
vector 128 TaxiNetwork.node[80] visitedPerTimestep ETV
vector 129 TaxiNetwork.node[24] visitedPerTimestep ETV
vector 130 TaxiNetwork.node[78] visitedPerTimestep ETV
vector 131 TaxiNetwork.node[28] visitedPerTimestep ETV
vector 132 TaxiNetwork.node[47] visitedPerTimestep ETV
vector 133 TaxiNetwork.node[127] visitedPerTimestep ETV
vector 134 TaxiNetwork.node[59] visitedPerTimestep ETV
vector 135 TaxiNetwork.node[23] visitedPerTimestep ETV
vector 136 TaxiNetwork.node[41] visitedPerTimestep ETV
vector 137 TaxiNetwork.node[25] visitedPerTimestep ETV
vector 138 TaxiNetwork.node[109] visitedPerTimestep ETV
vector 139 TaxiNetwork.node[43] visitedPerTimestep ETV
vector 140 TaxiNetwork.node[107] visitedPerTimestep ETV
vector 141 TaxiNetwork.node[125] visitedPerTimestep ETV
vector 142 TaxiNetwork.node[81] visitedPerTimestep ETV
0	1	0	1
0	159	0	86
0	184	0	93
0	197	0	94
0	239	0	99
0	328	0	109
0	404	0	110
0	464	0	112
0	556	0	115
0	667	0	117
0	680	0	117
0	684	0	117
0	764	0	119
0	1184	0	131
0	1246	0	132
0	1406	0	132
0	1474	0	132
0	1608	0	136
0	1876	0	138
0	1924	0	138
0	2082	0	138
0	2124	0	138
0	2158	0	138
0	2256	0	138
0	2298	0	138
0	2372	0	138
0	2540	0	138
0	2672	0	139
0	3172	0	139
0	4096	0	142
0	4168	0	142
0	4700	0	142
0	4716	0	142
0	4816	0	142
0	5048	0	142
0	5272	0	142
0	5724	0	142
0	6216	0	142
0	6372	0	142
0	6644	0	142
0	7320	0	143
0	8368	0	143
0	8472	0	143
0	9824	0	143
0	12616	0	144
0	12664	0	144
1	2	0	2
1	132	0	79
1	216	0	96
1	347	0	109
1	458	0	112
1	565	0	115
1	1242	0	132
1	1404	0	132
1	1840	0	136
1	2254	0	138
1	2262	0	138
1	2532	0	138
1	2716	0	139
1	2824	0	139
1	3364	0	142
1	3396	0	142
1	3772	0	142
1	4156	0	142
1	4248	0	142
1	4680	0	142
1	4936	0	142
1	5332	0	142
1	5656	0	142
1	6124	0	142
1	6132	0	142
1	8816	0	143
1	11776	0	144
2	3	0	3
2	145	0	81
2	151	0	83
2	169	0	89
2	235	0	99
2	324	0	109
2	331	0	109
2	403	0	110
2	481	0	113
2	783	0	122
2	794	0	122
2	893	0	129
2	1488	0	132
2	1516	0	132
2	1530	0	132
2	1726	0	136
2	1742	0	136
2	1806	0	136
2	1880	0	138
2	1916	0	138
2	1944	0	138
2	1956	0	138
2	1986	0	138
2	2192	0	138
2	2212	0	138
2	2446	0	138
2	2816	0	139
2	2846	0	139
2	3404	0	142
2	3536	0	142
2	3984	0	142
2	4964	0	142
2	5060	0	142
2	5104	0	142
2	5200	0	142
2	5276	0	142
2	5416	0	142
2	6212	0	142
2	6244	0	142
2	6684	0	142
2	8232	0	143
2	9568	0	143
2	9584	0	143
2	10576	0	144
2	11304	0	144
2	11688	0	144
2	11944	0	144
2	12336	0	144
2	12488	0	144
3	4	0	4
3	117	0	73
3	182	0	93
3	213	0	96
3	311	0	104
3	350	0	109
3	492	0	114
3	509	0	115
3	552	0	115
3	617	0	115
3	676	0	117
3	709	0	117
3	1176	0	131
3	1270	0	132
3	1746	0	136
3	1834	0	136
3	2038	0	138
3	2094	0	138
3	2162	0	138
3	2520	0	138
3	2576	0	138
3	3372	0	142
3	3476	0	142
3	4136	0	142
3	4196	0	142
3	4464	0	142
3	4496	0	142
3	4632	0	142
3	4676	0	142
3	4948	0	142
3	5448	0	142
3	5688	0	142
3	6176	0	142
3	6492	0	142
3	6516	0	142
3	7328	0	143
3	7360	0	143
3	7544	0	143
3	8704	0	143
3	9392	0	143
3	9432	0	143
3	10456	0	144
3	10728	0	144
3	11152	0	144
3	12440	0	144
3	12560	0	144
4	5	0	5
4	162	0	87
4	251	0	99
4	275	0	102
4	304	0	104
4	337	0	109
4	394	0	109
4	432	0	110
4	451	0	112
4	511	0	115
4	530	0	115
4	558	0	115
4	1272	0	132
4	1440	0	132
4	1540	0	132
4	1680	0	136
4	1716	0	136
4	1738	0	136
4	1918	0	138
4	1980	0	138
4	2080	0	138
4	2172	0	138
4	2266	0	138
4	2428	0	138
4	2680	0	139
4	2862	0	139
4	2972	0	139
4	3860	0	142
4	4452	0	142
4	5556	0	142
4	6136	0	142
4	6300	0	142
4	6696	0	142
4	7256	0	143
4	7296	0	143
4	7976	0	143
4	8424	0	143
4	8552	0	143
4	8672	0	143
4	11288	0	144
4	11424	0	144
4	11496	0	144
4	11904	0	144
4	12024	0	144
5	6	0	6
5	8	0	7
5	11	0	9
5	84	0	56
5	136	0	80
5	220	0	97
5	245	0	99
5	258	0	99
5	279	0	103
5	357	0	109
5	361	0	109
5	426	0	110
5	463	0	112
5	539	0	115
5	546	0	115
5	666	0	117
5	678	0	117
5	761	0	119
5	1098	0	131
5	1266	0	132
5	1294	0	132
5	1496	0	132
5	1512	0	132
5	2084	0	138
5	2092	0	138
5	2180	0	138
5	2208	0	138
5	2264	0	138
5	2712	0	139
5	3672	0	142
5	3728	0	142
5	3780	0	142
5	3804	0	142
5	3832	0	142
5	4396	0	142
5	4456	0	142
5	4488	0	142
5	4860	0	142
5	5440	0	142
5	5544	0	142
5	6040	0	142
5	7512	0	143
5	7984	0	143
5	8312	0	143
5	8456	0	143
5	8928	0	143
5	10904	0	144
5	12456	0	144
5	12656	0	144
5	12696	0	144
5	12928	0	144
5	13208	0	144
5	13232	0	144
6	7	0	7
6	101	0	68
6	189	0	94
6	237	0	99
6	272	0	102
6	325	0	109
6	419	0	110
6	457	0	112
6	486	0	113
6	531	0	115
6	536	0	115
6	593	0	115
6	632	0	115
6	771	0	119
6	878	0	129
6	946	0	130
6	1218	0	132
6	1264	0	132
6	1382	0	132
6	1394	0	132
6	1424	0	132
6	1484	0	132
6	1490	0	132
6	1522	0	132
6	1722	0	136
6	1838	0	136
6	1904	0	138
6	2400	0	138
6	2818	0	139
6	2832	0	139
6	2872	0	139
6	2962	0	139
6	3688	0	142
6	3712	0	142
6	3900	0	142
6	4300	0	142
6	4340	0	142
6	4556	0	142
6	4692	0	142
6	4724	0	142
6	4844	0	142
6	6120	0	142
6	6484	0	142
6	6496	0	142
6	7264	0	143
6	8448	0	143
6	8864	0	143
6	9520	0	143
6	9832	0	143
6	10040	0	144
6	10056	0	144
6	10912	0	144
6	12352	0	144
7	9	0	8
7	12	0	9
7	158	0	86
7	238	0	99
7	351	0	109
7	380	0	109
7	387	0	109
7	452	0	112
7	483	0	113
7	519	0	115
7	529	0	115
7	703	0	117
7	1258	0	132
7	1354	0	132
7	1380	0	132
7	1412	0	132
7	1526	0	132
7	1536	0	132
7	1586	0	136
7	1734	0	136
7	1802	0	136
7	1854	0	136
7	1938	0	138
7	2018	0	138
7	2110	0	138
7	2166	0	138
7	2250	0	138
7	2454	0	138
7	2516	0	138
7	2542	0	138
7	2718	0	139
7	2856	0	139
7	2866	0	139
7	2908	0	139
7	3084	0	139
7	3400	0	142
7	3568	0	142
7	3812	0	142
7	4200	0	142
7	4392	0	142
7	4872	0	142
7	4920	0	142
7	5196	0	142
7	5540	0	142
7	5548	0	142
7	6436	0	142
7	6444	0	142
7	8384	0	143
7	8888	0	143
7	8976	0	143
7	10464	0	144
7	10688	0	144
7	11728	0	144
7	11816	0	144
8	10	0	9
8	257	0	99
8	364	0	109
8	416	0	110
8	427	0	110
8	493	0	114
8	507	0	115
8	665	0	117
8	1236	0	132
8	1492	0	132
8	1660	0	136
8	1844	0	136
8	1894	0	138
8	2032	0	138
8	2204	0	138
8	2628	0	139
8	2708	0	139
8	3140	0	139
8	3188	0	139
8	3668	0	142
8	4076	0	142
8	4144	0	142
8	4216	0	142
8	5280	0	142
8	5308	0	142
8	6980	0	143
8	8248	0	143
8	8936	0	143
8	9320	0	143
8	9352	0	143
8	9408	0	143
8	9480	0	143
8	9800	0	143
8	9816	0	143
8	10176	0	144
8	10432	0	144
8	11392	0	144
8	11408	0	144
8	11432	0	144
8	11488	0	144
8	11824	0	144
8	11856	0	144
8	12472	0	144
8	12496	0	144
8	13000	0	144
9	13	0	10
9	20	0	16
9	70	0	49
9	87	0	57
9	140	0	81
9	164	0	87
9	200	0	95
9	246	0	99
9	383	0	109
9	414	0	110
9	471	0	112
9	573	0	115
9	625	0	115
9	682	0	117
9	712	0	117
9	755	0	119
9	767	0	119
9	915	0	130
9	1146	0	131
9	1292	0	132
9	1376	0	132
9	1542	0	132
9	1610	0	136
9	1978	0	138
9	2076	0	138
9	2346	0	138
9	2406	0	138
9	2424	0	138
9	2578	0	138
9	2604	0	138
9	2814	0	139
9	2948	0	139
9	3352	0	142
9	3552	0	142
9	3676	0	142
9	3896	0	142
9	5216	0	142
9	5648	0	142
9	5696	0	142
9	6312	0	142
9	6448	0	142
9	6680	0	142
9	10560	0	144
9	11280	0	144
9	13168	0	144
10	14	0	11
10	71	0	49
10	152	0	83
10	300	0	104
10	310	0	104
10	388	0	109
10	615	0	115
10	745	0	119
10	880	0	129
10	1216	0	131
10	1308	0	132
10	1342	0	132
10	1426	0	132
10	1604	0	136
10	1656	0	136
10	1698	0	136
10	1800	0	136
10	1914	0	138
10	2134	0	138
10	2148	0	138
10	2232	0	138
10	2368	0	138
10	2648	0	139
10	2658	0	139
10	2916	0	139
10	2980	0	139
10	3544	0	142
10	5164	0	142
10	5464	0	142
10	7224	0	143
10	8072	0	143
10	8344	0	143
10	8624	0	143
10	9672	0	143
10	9720	0	143
10	10088	0	144
10	11456	0	144
10	11512	0	144
10	12344	0	144
10	12520	0	144
11	15	0	12
11	149	0	83
11	226	0	98
11	230	0	99
11	277	0	102
11	379	0	109
11	490	0	114
11	561	0	115
11	567	0	115
11	590	0	115
11	695	0	117
11	746	0	119
11	784	0	122
11	940	0	130
11	1118	0	131
11	1476	0	132
11	1808	0	136
11	2174	0	138
11	2178	0	138
11	2194	0	138
11	2304	0	138
11	2568	0	138
11	2574	0	138
11	3192	0	139
11	3328	0	142
11	3440	0	142
11	3456	0	142
11	3692	0	142
11	4080	0	142
11	4176	0	142
11	4412	0	142
11	4768	0	142
11	4856	0	142
11	4868	0	142
11	5336	0	142
11	5484	0	142
11	5504	0	142
11	5536	0	142
11	8000	0	143
11	8096	0	143
11	8560	0	143
11	9752	0	143
11	9776	0	143
11	10848	0	144
11	10864	0	144
11	11200	0	144
11	11416	0	144
11	11720	0	144
11	12056	0	144
11	12704	0	144
12	16	0	13
12	99	0	67
12	120	0	73
12	139	0	81
12	201	0	95
12	212	0	96
12	214	0	96
12	371	0	109
12	389	0	109
12	596	0	115
12	736	0	119
12	798	0	122
12	913	0	130
12	1166	0	131
12	1798	0	136
12	1852	0	136
12	1908	0	138
12	2344	0	138
12	2430	0	138
12	2662	0	139
12	2684	0	139
12	3100	0	139
12	3460	0	142
12	3816	0	142
12	4536	0	142
12	5044	0	142
12	5144	0	142
12	6356	0	142
12	7472	0	143
12	8256	0	143
12	8648	0	143
12	8848	0	143
12	9576	0	143
12	11256	0	144
12	11272	0	144
12	11672	0	144
12	11832	0	144
12	12272	0	144
12	12480	0	144
12	12760	0	144
12	13104	0	144
13	17	0	14
13	73	0	50
13	78	0	52
13	232	0	99
13	360	0	109
13	428	0	110
13	555	0	115
13	597	0	115
13	620	0	115
13	669	0	117
13	677	0	117
13	806	0	122
13	928	0	130
13	1096	0	131
13	1174	0	131
13	1298	0	132
13	1364	0	132
13	1640	0	136
13	1888	0	138
13	2106	0	138
13	2210	0	138
13	2570	0	138
13	2610	0	138
13	2626	0	139
13	2702	0	139
13	2896	0	139
13	3216	0	139
13	3224	0	139
13	3236	0	139
13	3380	0	142
13	3428	0	142
13	3964	0	142
13	4264	0	142
13	4312	0	142
13	4400	0	142
13	5012	0	142
13	5612	0	142
13	5712	0	142
13	5732	0	142
13	6140	0	142
13	6296	0	142
13	6348	0	142
13	7280	0	143
13	9448	0	143
13	9712	0	143
13	9808	0	143
13	10064	0	144
13	10672	0	144
13	11912	0	144
14	18	0	15
14	143	0	81
14	147	0	82
14	236	0	99
14	303	0	104
14	352	0	109
14	365	0	109
14	466	0	112
14	480	0	113
14	494	0	114
14	518	0	115
14	527	0	115
14	572	0	115
14	602	0	115
14	668	0	117
14	708	0	117
14	717	0	117
14	1228	0	132
14	1756	0	136
14	1816	0	136
14	1882	0	138
14	2100	0	138
14	2176	0	138
14	2334	0	138
14	2456	0	138
14	3348	0	142
14	3472	0	142
14	3492	0	142
14	3540	0	142
14	4244	0	142
14	4276	0	142
14	4316	0	142
14	4344	0	142
14	4480	0	142
14	4664	0	142
14	5016	0	142
14	5300	0	142
14	5480	0	142
14	5700	0	142
14	7216	0	143
14	8280	0	143
14	8984	0	143
14	9368	0	143
14	10048	0	144
14	12608	0	144
14	13144	0	144
15	19	0	16
15	98	0	67
15	156	0	86
15	356	0	109
15	516	0	115
15	660	0	117
15	722	0	117
15	735	0	119
15	738	0	119
15	769	0	119
15	902	0	130
15	937	0	130
15	1132	0	131
15	1162	0	131
15	1188	0	131
15	1194	0	131
15	1226	0	132
15	1256	0	132
15	1262	0	132
15	1824	0	136
15	1964	0	138
15	2008	0	138
15	2062	0	138
15	2318	0	138
15	2396	0	138
15	2416	0	138
15	2432	0	138
15	2678	0	139
15	2820	0	139
15	2912	0	139
15	3500	0	142
15	4328	0	142
15	4380	0	142
15	4560	0	142
15	4744	0	142
15	4824	0	142
15	4968	0	142
15	5268	0	142
15	5436	0	142
15	5444	0	142
15	5628	0	142
15	6144	0	142
15	6384	0	142
15	7200	0	143
15	7952	0	143
15	8320	0	143
15	9848	0	143
15	9944	0	144
15	10592	0	144
15	11368	0	144
15	11560	0	144
15	12280	0	144
15	12464	0	144
15	12592	0	144
15	12768	0	144
15	12896	0	144
16	21	0	17
16	74	0	50
16	142	0	81
16	174	0	90
16	187	0	94
16	203	0	95
16	271	0	102
16	335	0	109
16	401	0	110
16	469	0	112
16	577	0	115
16	607	0	115
16	618	0	115
16	675	0	117
16	749	0	119
16	757	0	119
16	885	0	129
16	949	0	130
16	1180	0	131
16	1434	0	132
16	1520	0	132
16	1654	0	136
16	1820	0	136
16	2034	0	138
16	2060	0	138
16	2186	0	138
16	2202	0	138
16	2272	0	138
16	2286	0	138
16	2638	0	139
16	2920	0	139
16	2942	0	139
16	3360	0	142
16	3680	0	142
16	4508	0	142
16	4752	0	142
16	4836	0	142
16	4852	0	142
16	4996	0	142
16	5644	0	142
16	6204	0	142
16	8080	0	143
16	8920	0	143
16	9856	0	143
16	10144	0	144
16	10856	0	144
16	12384	0	144
16	13176	0	144
17	22	0	18
17	85	0	56
17	109	0	71
17	248	0	99
17	250	0	99
17	372	0	109
17	378	0	109
17	399	0	110
17	467	0	112
17	810	0	122
17	851	0	129
17	1072	0	131
17	1094	0	131
17	1100	0	131
17	1138	0	131
17	1470	0	132
17	1502	0	132
17	1584	0	136
17	1596	0	136
17	1652	0	136
17	1906	0	138
17	2096	0	138
17	2350	0	138
17	2732	0	139
17	2806	0	139
17	2854	0	139
17	2884	0	139
17	3092	0	139
17	3160	0	139
17	3824	0	142
17	4280	0	142
17	4320	0	142
17	4468	0	142
17	4584	0	142
17	4608	0	142
17	7384	0	143
17	7904	0	143
17	8832	0	143
17	10424	0	144
17	10968	0	144
17	11704	0	144
18	23	0	19
18	281	0	103
18	326	0	109
18	397	0	110
18	415	0	110
18	594	0	115
18	630	0	115
18	633	0	115
18	699	0	117
18	706	0	117
18	870	0	129
18	967	0	130
18	1714	0	136
18	1750	0	136
18	2558	0	138
18	2602	0	138
18	2886	0	139
18	3464	0	142
18	3600	0	142
18	7304	0	143
18	7552	0	143
18	8544	0	143
18	8656	0	143
18	8696	0	143
18	11384	0	144
18	13088	0	144
19	24	0	20
19	641	0	116
19	644	0	117
19	818	0	123
19	968	0	130
19	993	0	130
19	1034	0	130
19	1038	0	130
19	1104	0	131
19	2464	0	138
19	2740	0	139
19	2744	0	139
19	2778	0	139
19	3604	0	142
19	3620	0	142
19	4044	0	142
19	4800	0	142
19	5940	0	142
19	5948	0	142
19	5956	0	142
19	5980	0	142
19	5988	0	142
19	6076	0	142
19	6768	0	142
19	6968	0	143
19	7400	0	143
19	7680	0	143
19	9224	0	143
19	10240	0	144
19	10256	0	144
19	12168	0	144
19	12208	0	144
19	13080	0	144
20	25	0	21
20	499	0	115
20	815	0	122
20	823	0	124
20	827	0	124
20	855	0	129
20	863	0	129
20	971	0	130
20	1092	0	131
20	2476	0	138
20	2504	0	138
20	3024	0	139
20	4008	0	142
20	4064	0	142
20	4600	0	142
20	5780	0	142
20	5900	0	142
20	6536	0	142
20	6764	0	142
20	6840	0	142
20	6912	0	142
20	7600	0	143
20	8496	0	143
20	9112	0	143
20	10336	0	144
20	10368	0	144
21	26	0	22
21	33	0	27
21	377	0	109
21	438	0	110
21	444	0	111
21	636	0	115
21	980	0	130
21	985	0	130
21	1002	0	130
21	1020	0	130
21	1450	0	132
21	1564	0	134
21	1570	0	136
21	1662	0	136
21	2468	0	138
21	2506	0	138
21	2600	0	138
21	2738	0	139
21	2756	0	139
21	4048	0	142
21	4588	0	142
21	5796	0	142
21	5824	0	142
21	6568	0	142
21	6752	0	142
21	7632	0	143
21	9120	0	143
21	10192	0	144
21	11864	0	144
21	12192	0	144
21	12224	0	144
21	13008	0	144
22	27	0	23
22	43	0	32
22	375	0	109
22	436	0	110
22	502	0	115
22	849	0	129
22	996	0	130
22	1084	0	131
22	1454	0	132
22	1558	0	133
22	2478	0	138
22	2500	0	138
22	4056	0	142
22	4596	0	142
22	4792	0	142
22	5788	0	142
22	5848	0	142
22	6004	0	142
22	6552	0	142
22	6572	0	142
22	6724	0	142
22	6920	0	143
22	6928	0	143
22	9256	0	143
22	10392	0	144
22	11032	0	144
22	11056	0	144
23	28	0	24
23	44	0	32
23	852	0	129
23	1036	0	130
23	1074	0	131
23	2466	0	138
23	2470	0	138
23	2490	0	138
23	3068	0	139
23	3608	0	142
23	4068	0	142
23	5864	0	142
23	5888	0	142
23	6080	0	142
23	6088	0	142
23	6580	0	142
23	6732	0	142
23	6776	0	142
23	6808	0	142
23	9024	0	143
23	11088	0	144
24	29	0	25
24	32	0	27
24	443	0	111
24	858	0	129
24	1022	0	130
24	1032	0	130
24	2754	0	139
24	2764	0	139
24	3004	0	139
24	5820	0	142
24	5920	0	142
24	5952	0	142
24	6880	0	142
24	7592	0	143
24	9032	0	143
24	9176	0	143
24	9248	0	143
24	11104	0	144
24	12128	0	144
25	30	0	26
25	41	0	32
25	832	0	125
25	1058	0	131
25	3032	0	139
25	5932	0	142
25	7576	0	143
25	7728	0	143
25	9160	0	143
25	10320	0	144
25	11112	0	144
25	12176	0	144
25	12216	0	144
26	31	0	27
26	38	0	31
26	437	0	110
26	640	0	116
26	819	0	123
26	862	0	129
26	1030	0	130
26	1550	0	132
26	1566	0	134
26	2472	0	138
26	2596	0	138
26	2742	0	139
26	2772	0	139
26	2790	0	139
26	3028	0	139
26	5936	0	142
26	6008	0	142
26	6564	0	142
26	6832	0	142
26	6900	0	142
26	7440	0	143
26	7736	0	143
26	9136	0	143
26	9280	0	143
26	10216	0	144
26	12152	0	144
26	12184	0	144
26	13064	0	144
27	34	0	28
27	104	0	69
27	255	0	99
27	287	0	103
27	642	0	116
27	752	0	119
27	825	0	124
27	983	0	130
27	1106	0	131
27	1452	0	132
27	2496	0	138
27	2734	0	139
27	2794	0	139
27	5892	0	142
27	5912	0	142
27	6072	0	142
27	6532	0	142
27	6720	0	142
27	6936	0	143
27	7896	0	143
27	9080	0	143
27	11016	0	144
27	11048	0	144
27	12088	0	144
28	35	0	29
28	105	0	69
28	2498	0	138
28	3640	0	142
28	3648	0	142
28	5852	0	142
28	6932	0	143
28	10400	0	144
28	11040	0	144
29	36	0	30
29	42	0	32
29	45	0	32
29	501	0	115
29	638	0	115
29	992	0	130
29	1004	0	130
29	1456	0	132
29	2502	0	138
29	2746	0	139
29	2786	0	139
29	2792	0	139
29	2796	0	139
29	3636	0	142
29	5752	0	142
29	5996	0	142
29	6748	0	142
29	6760	0	142
29	6904	0	142
29	6972	0	143
29	10288	0	144
29	10352	0	144
29	11128	0	144
29	13032	0	144
30	37	0	31
30	40	0	32
30	285	0	103
30	859	0	129
30	973	0	130
30	988	0	130
30	1556	0	133
30	1562	0	134
30	2590	0	138
30	2760	0	139
30	2766	0	139
30	2770	0	139
30	2788	0	139
30	3044	0	139
30	4028	0	142
30	4036	0	142
30	5960	0	142
30	6540	0	142
30	6576	0	142
30	6952	0	143
30	7568	0	143
30	7616	0	143
30	9056	0	143
30	9168	0	143
30	9208	0	143
30	9232	0	143
30	10248	0	144
30	12200	0	144
31	39	0	32
31	113	0	72
31	976	0	130
31	978	0	130
31	999	0	130
31	1014	0	130
31	1026	0	130
31	1052	0	131
31	1066	0	131
31	2776	0	139
31	3016	0	139
31	3052	0	139
31	3064	0	139
31	3612	0	142
31	5964	0	142
31	6788	0	142
31	6812	0	142
31	6860	0	142
31	6888	0	142
31	7584	0	143
31	7664	0	143
31	8520	0	143
31	9064	0	143
31	12144	0	144
32	46	0	33
32	439	0	110
32	441	0	110
32	445	0	111
32	498	0	115
32	813	0	122
32	829	0	124
32	846	0	129
32	990	0	130
32	1078	0	131
32	1458	0	132
32	1462	0	132
32	2480	0	138
32	2594	0	138
32	4016	0	142
32	5768	0	142
32	6584	0	142
32	6620	0	142
32	6804	0	142
32	6820	0	142
32	6844	0	142
32	6872	0	142
32	6944	0	143
32	6964	0	143
32	9192	0	143
32	10328	0	144
33	47	0	34
33	848	0	129
33	1086	0	131
33	1464	0	132
33	2474	0	138
33	2488	0	138
33	2736	0	139
33	3076	0	139
33	4012	0	142
33	4060	0	142
33	4592	0	142
33	4604	0	142
33	5776	0	142
33	5868	0	142
33	5904	0	142
33	6544	0	142
33	6588	0	142
33	6836	0	142
33	6876	0	142
33	7608	0	143
33	10200	0	144
33	11136	0	144
33	13024	0	144
34	48	0	35
34	107	0	70
34	129	0	77
34	191	0	94
34	256	0	99
34	267	0	102
34	273	0	102
34	283	0	103
34	391	0	109
34	434	0	110
34	465	0	112
34	883	0	129
34	916	0	130
34	930	0	130
34	1108	0	131
34	1232	0	132
34	1396	0	132
34	1446	0	132
34	1510	0	132
34	1678	0	136
34	1752	0	136
34	1926	0	138
34	2586	0	138
34	2636	0	139
34	2880	0	139
34	3408	0	142
34	3820	0	142
34	3844	0	142
34	3880	0	142
34	4000	0	142
34	4672	0	142
34	4832	0	142
34	4956	0	142
34	5292	0	142
34	5636	0	142
34	5844	0	142
34	6116	0	142
34	6192	0	142
34	6200	0	142
34	6716	0	142
34	8736	0	143
34	10168	0	144
34	11696	0	144
34	11880	0	144
34	12080	0	144
34	12240	0	144
34	12912	0	144
35	49	0	36
35	128	0	77
35	259	0	99
35	512	0	115
35	568	0	115
35	574	0	115
35	796	0	122
35	804	0	122
35	866	0	129
35	1388	0	132
35	1500	0	132
35	1582	0	136
35	1810	0	136
35	2294	0	138
35	2710	0	139
35	2882	0	139
35	3436	0	142
35	3716	0	142
35	3764	0	142
35	3848	0	142
35	3888	0	142
35	4140	0	142
35	4152	0	142
35	5324	0	142
35	6524	0	142
35	9536	0	143
35	9760	0	143
35	9784	0	143
35	10112	0	144
35	12624	0	144
35	13152	0	144
36	50	0	37
36	56	0	40
36	188	0	94
36	330	0	109
36	450	0	112
36	571	0	115
36	600	0	115
36	867	0	129
36	1332	0	132
36	1842	0	136
36	2040	0	138
36	2090	0	138
36	2554	0	138
36	2572	0	138
36	2812	0	139
36	2922	0	139
36	3200	0	139
36	3356	0	142
36	3576	0	142
36	3796	0	142
36	3840	0	142
36	4208	0	142
36	4580	0	142
36	4972	0	142
36	5652	0	142
36	6148	0	142
36	8304	0	143
36	9488	0	143
36	9504	0	143
36	9560	0	143
36	9768	0	143
36	10896	0	144
36	11712	0	144
36	11992	0	144
36	12600	0	144
36	12632	0	144
36	12680	0	144
36	12904	0	144
36	12960	0	144
36	12984	0	144
37	51	0	38
37	53	0	39
37	58	0	41
37	133	0	79
37	244	0	99
37	293	0	104
37	348	0	109
37	462	0	112
37	741	0	119
37	1858	0	136
37	2260	0	138
37	2828	0	139
37	4252	0	142
37	6044	0	142
37	10472	0	144
37	11760	0	144
37	11808	0	144
37	13240	0	144
38	52	0	39
38	54	0	39
38	359	0	109
38	484	0	113
38	513	0	115
38	2258	0	138
38	2926	0	139
38	3152	0	139
38	3212	0	139
38	3384	0	142
38	3724	0	142
38	3776	0	142
38	4164	0	142
38	4204	0	142
38	6056	0	142
38	9552	0	143
38	10488	0	144
38	11752	0	144
38	11784	0	144
38	12648	0	144
38	12688	0	144
38	12936	0	144
38	13216	0	144
38	13248	0	144
39	55	0	40
39	102	0	68
39	393	0	109
39	557	0	115
39	710	0	117
39	760	0	119
39	1276	0	132
39	1532	0	132
39	2184	0	138
39	4308	0	142
39	4864	0	142
39	5296	0	142
39	5520	0	142
39	6064	0	142
39	6376	0	142
39	6632	0	142
39	9528	0	143
39	10496	0	144
39	10888	0	144
39	11400	0	144
39	11736	0	144
39	11920	0	144
39	13272	0	144
39	13288	0	144
40	57	0	41
40	289	0	103
40	329	0	109
40	598	0	115
40	765	0	119
40	803	0	122
40	1110	0	131
40	1290	0	132
40	2694	0	139
40	2810	0	139
40	2826	0	139
40	3164	0	139
40	3208	0	139
40	3720	0	142
40	4660	0	142
40	4668	0	142
40	5328	0	142
40	5672	0	142
40	6520	0	142
40	9544	0	143
40	9704	0	143
40	10416	0	144
41	59	0	42
41	294	0	104
42	60	0	43
42	1862	0	136
42	6424	0	142
43	61	0	44
43	6420	0	142
44	62	0	45
44	65	0	47
44	1864	0	136
45	63	0	46
45	242	0	99
45	1868	0	137
45	6416	0	142
46	64	0	47
46	67	0	48
46	243	0	99
46	296	0	104
46	1860	0	136
46	5188	0	142
47	66	0	48
47	68	0	48
47	241	0	99
47	297	0	104
47	740	0	119
47	742	0	119
47	1870	0	138
47	6412	0	142
47	8120	0	143
48	69	0	49
48	75	0	50
48	82	0	55
48	135	0	80
48	137	0	80
48	144	0	81
48	222	0	98
48	298	0	104
48	314	0	104
48	538	0	115
48	613	0	115
48	686	0	117
48	689	0	117
48	790	0	122
48	886	0	129
48	938	0	130
48	955	0	130
48	1206	0	131
48	1314	0	132
48	1482	0	132
48	1874	0	138
48	2160	0	138
48	2608	0	138
48	2830	0	139
48	2836	0	139
48	3732	0	142
48	3960	0	142
48	4408	0	142
48	4728	0	142
48	5176	0	142
48	5396	0	142
48	5624	0	142
48	6028	0	142
48	6256	0	142
48	6408	0	142
48	7336	0	143
48	8800	0	143
48	9424	0	143
48	9512	0	143
48	9896	0	143
48	10928	0	144
48	11312	0	144
48	11624	0	144
48	11984	0	144
49	72	0	50
49	111	0	71
49	118	0	73
49	186	0	94
49	233	0	99
49	390	0	109
49	418	0	110
49	634	0	115
49	1248	0	132
49	1260	0	132
49	1282	0	132
49	1438	0	132
49	1504	0	132
49	1898	0	138
49	1942	0	138
49	2290	0	138
49	2518	0	138
49	2944	0	139
49	2968	0	139
49	3548	0	142
49	3948	0	142
49	4100	0	142
49	4108	0	142
49	4540	0	142
49	5052	0	142
49	5148	0	142
49	5500	0	142
49	6452	0	142
49	7480	0	143
49	8392	0	143
49	8688	0	143
49	9968	0	144
49	10696	0	144
49	11440	0	144
49	11568	0	144
49	11640	0	144
49	12248	0	144
50	76	0	51
50	122	0	74
50	223	0	98
50	454	0	112
50	474	0	112
50	726	0	118
50	773	0	119
50	1792	0	136
50	2216	0	138
50	2244	0	138
50	2354	0	138
50	2434	0	138
50	2984	0	139
50	3180	0	139
50	3300	0	142
50	3520	0	142
50	3916	0	142
50	4188	0	142
50	4564	0	142
50	5356	0	142
50	5600	0	142
50	9656	0	143
50	11952	0	144
51	77	0	52
51	526	0	115
51	731	0	119
51	799	0	122
51	927	0	130
51	1408	0	132
51	1778	0	136
51	1822	0	136
51	2014	0	138
51	2102	0	138
51	2168	0	138
51	2188	0	138
51	2214	0	138
51	2226	0	138
51	2332	0	138
51	2582	0	138
51	2834	0	139
51	2844	0	139
51	4572	0	142
51	4640	0	142
51	4888	0	142
51	5032	0	142
51	5040	0	142
51	5160	0	142
51	5568	0	142
51	6160	0	142
51	8048	0	143
51	8880	0	143
51	9608	0	143
51	10008	0	144
51	12328	0	144
51	12576	0	144
52	79	0	53
52	124	0	75
52	163	0	87
52	211	0	96
52	339	0	109
52	385	0	109
52	417	0	110
52	456	0	112
52	537	0	115
52	589	0	115
52	651	0	117
52	692	0	117
52	697	0	117
52	889	0	129
52	945	0	130
52	1362	0	132
52	1694	0	136
52	1740	0	136
52	1804	0	136
52	2108	0	138
52	2422	0	138
52	2562	0	138
52	2624	0	139
52	2850	0	139
52	2906	0	139
52	2940	0	139
52	2986	0	139
52	4424	0	142
52	4712	0	142
52	4884	0	142
52	4916	0	142
52	5140	0	142
52	5212	0	142
52	5316	0	142
52	6264	0	142
52	8032	0	143
52	8192	0	143
52	8224	0	143
52	10648	0	144
52	11960	0	144
52	12888	0	144
53	80	0	54
53	343	0	109
53	478	0	113
53	489	0	114
53	873	0	129
53	939	0	130
53	942	0	130
53	1130	0	131
53	1186	0	131
53	1480	0	132
53	1616	0	136
53	1648	0	136
53	1724	0	136
53	1902	0	138
53	1954	0	138
53	1970	0	138
53	2234	0	138
53	2448	0	138
53	3976	0	142
53	4088	0	142
53	4352	0	142
53	4740	0	142
53	4880	0	142
53	5344	0	142
53	5472	0	142
53	6156	0	142
53	6164	0	142
53	6368	0	142
53	9648	0	143
53	10544	0	144
53	10720	0	144
53	10816	0	144
53	10944	0	144
53	12408	0	144
53	12784	0	144
53	12824	0	144
54	81	0	55
54	306	0	104
54	323	0	109
54	346	0	109
54	382	0	109
54	472	0	112
54	583	0	115
54	705	0	117
54	715	0	117
54	797	0	122
54	892	0	129
54	934	0	130
54	943	0	130
54	951	0	130
54	1288	0	132
54	1420	0	132
54	1674	0	136
54	1702	0	136
54	1796	0	136
54	1812	0	136
54	1818	0	136
54	1884	0	138
54	1892	0	138
54	1958	0	138
54	2028	0	138
54	2146	0	138
54	2248	0	138
54	2410	0	138
54	2418	0	138
54	2530	0	138
54	2934	0	139
54	2938	0	139
54	3128	0	139
54	3784	0	142
54	3872	0	142
54	4332	0	142
54	4528	0	142
54	4544	0	142
54	4652	0	142
54	4760	0	142
54	5240	0	142
54	5320	0	142
54	5376	0	142
54	5608	0	142
54	6032	0	142
54	6252	0	142
54	6500	0	142
54	8216	0	143
54	8728	0	143
54	8824	0	143
54	9336	0	143
54	9464	0	143
54	9696	0	143
54	10512	0	144
54	10624	0	144
54	11616	0	144
54	12584	0	144
55	83	0	56
55	126	0	76
55	172	0	90
55	309	0	104
55	400	0	110
55	479	0	113
55	559	0	115
55	585	0	115
55	591	0	115
55	601	0	115
55	612	0	115
55	673	0	117
55	762	0	119
55	903	0	130
55	1170	0	131
55	1222	0	132
55	2016	0	138
55	2024	0	138
55	2282	0	138
55	2700	0	139
55	2852	0	139
55	2898	0	139
55	2956	0	139
55	3104	0	139
55	3332	0	142
55	3444	0	142
55	3496	0	142
55	3560	0	142
55	3660	0	142
55	3744	0	142
55	3788	0	142
55	3852	0	142
55	4148	0	142
55	4220	0	142
55	4360	0	142
55	4384	0	142
55	4404	0	142
55	4548	0	142
55	4748	0	142
55	4756	0	142
55	4764	0	142
55	4848	0	142
55	4908	0	142
55	4976	0	142
55	5156	0	142
55	6248	0	142
55	6336	0	142
55	7504	0	143
55	7520	0	143
55	8024	0	143
55	8968	0	143
55	10152	0	144
55	10840	0	144
55	11520	0	144
55	11648	0	144
55	13136	0	144
56	86	0	57
56	204	0	95
56	234	0	99
56	517	0	115
56	579	0	115
56	605	0	115
56	650	0	117
56	654	0	117
56	690	0	117
56	698	0	117
56	748	0	119
56	909	0	130
56	1238	0	132
56	1252	0	132
56	1300	0	132
56	1360	0	132
56	1886	0	138
56	1940	0	138
56	2046	0	138
56	2242	0	138
56	2340	0	138
56	2382	0	138
56	2664	0	139
56	2674	0	139
56	2722	0	139
56	2842	0	139
56	2864	0	139
56	2892	0	139
56	2910	0	139
56	3176	0	139
56	3324	0	142
56	3956	0	142
56	3972	0	142
56	4084	0	142
56	4268	0	142
56	4532	0	142
56	4820	0	142
56	4828	0	142
56	5208	0	142
56	5236	0	142
56	5244	0	142
56	5288	0	142
56	5720	0	142
56	7496	0	143
56	8008	0	143
56	8768	0	143
56	9592	0	143
56	9936	0	143
56	10704	0	144
56	12016	0	144
56	12432	0	144
56	13112	0	144
57	88	0	58
57	312	0	104
57	333	0	109
57	524	0	115
57	586	0	115
57	610	0	115
57	628	0	115
57	662	0	117
57	693	0	117
57	744	0	119
57	756	0	119
57	793	0	122
57	898	0	129
57	905	0	130
57	919	0	130
57	1322	0	132
57	1328	0	132
57	1334	0	132
57	1374	0	132
57	1514	0	132
57	1706	0	136
57	1828	0	136
57	1998	0	138
57	2048	0	138
57	2140	0	138
57	2150	0	138
57	2218	0	138
57	2284	0	138
57	2442	0	138
57	2606	0	138
57	2848	0	139
57	2950	0	139
57	2976	0	139
57	4368	0	142
57	4628	0	142
57	4644	0	142
57	4840	0	142
57	5400	0	142
57	5408	0	142
57	5580	0	142
57	6020	0	142
57	6308	0	142
57	6324	0	142
57	6472	0	142
57	6656	0	142
57	10032	0	144
57	10608	0	144
57	10920	0	144
57	11184	0	144
57	11584	0	144
57	11896	0	144
58	89	0	59
58	110	0	71
58	249	0	99
58	307	0	104
58	338	0	109
58	495	0	114
58	606	0	115
58	611	0	115
58	649	0	117
58	801	0	122
58	912	0	130
58	1134	0	131
58	1154	0	131
58	1158	0	131
58	1178	0	131
58	1280	0	132
58	1348	0	132
58	1650	0	136
58	1962	0	138
58	2074	0	138
58	2154	0	138
58	2196	0	138
58	2238	0	138
58	2300	0	138
58	2420	0	138
58	2560	0	138
58	2686	0	139
58	2878	0	139
58	2936	0	139
58	3412	0	142
58	3480	0	142
58	3748	0	142
58	4120	0	142
58	4180	0	142
58	4288	0	142
58	4620	0	142
58	4992	0	142
58	5304	0	142
58	5552	0	142
58	6508	0	142
58	8264	0	143
58	8352	0	143
58	8416	0	143
58	8720	0	143
58	8744	0	143
58	9864	0	143
58	10712	0	144
58	12256	0	144
58	12728	0	144
59	90	0	60
59	206	0	96
59	362	0	109
59	435	0	110
59	624	0	115
59	751	0	119
59	865	0	129
59	911	0	130
59	1116	0	131
59	1386	0	132
59	1546	0	132
59	1632	0	136
59	1922	0	138
59	1928	0	138
59	2296	0	138
59	2336	0	138
59	2376	0	138
59	2510	0	138
59	2514	0	138
59	2552	0	138
59	2698	0	139
59	3080	0	139
59	3420	0	142
59	3656	0	142
59	3664	0	142
59	3836	0	142
59	3996	0	142
59	4460	0	142
59	4484	0	142
59	4812	0	142
59	6360	0	142
59	6504	0	142
59	6592	0	142
59	6604	0	142
59	6636	0	142
59	7312	0	143
59	8712	0	143
59	8896	0	143
59	10984	0	144
59	11608	0	144
59	11936	0	144
59	12232	0	144
59	13192	0	144
60	91	0	61
60	266	0	102
60	374	0	109
60	440	0	110
60	850	0	129
60	995	0	130
60	997	0	130
60	2588	0	138
60	2804	0	139
60	4796	0	142
60	4808	0	142
60	5896	0	142
60	6100	0	142
60	6196	0	142
60	6600	0	142
60	6612	0	142
60	6940	0	143
60	7624	0	143
60	11080	0	144
60	11872	0	144
61	92	0	62
61	268	0	102
61	305	0	104
61	321	0	108
61	370	0	109
61	424	0	110
61	510	0	115
61	521	0	115
61	646	0	117
61	671	0	117
61	701	0	117
61	1448	0	132
61	1466	0	132
61	1672	0	136
61	1730	0	136
61	1832	0	136
61	2458	0	138
61	3756	0	142
61	3952	0	142
61	4124	0	142
61	5804	0	142
61	6104	0	142
61	6608	0	142
61	7464	0	143
61	8400	0	143
61	10440	0	144
61	11144	0	144
61	12504	0	144
62	93	0	63
62	115	0	72
62	119	0	73
62	171	0	90
62	193	0	94
62	208	0	96
62	225	0	98
62	308	0	104
62	336	0	109
62	354	0	109
62	367	0	109
62	369	0	109
62	398	0	110
62	609	0	115
62	622	0	115
62	691	0	117
62	719	0	117
62	809	0	122
62	907	0	130
62	917	0	130
62	1152	0	131
62	1210	0	131
62	1392	0	132
62	1414	0	132
62	1594	0	136
62	1708	0	136
62	1836	0	136
62	2030	0	138
62	2316	0	138
62	2348	0	138
62	2450	0	138
62	2550	0	138
62	2724	0	139
62	2874	0	139
62	2894	0	139
62	3988	0	142
62	4904	0	142
62	5008	0	142
62	5340	0	142
62	5384	0	142
62	5716	0	142
62	6016	0	142
62	7488	0	143
62	8336	0	143
62	8360	0	143
62	8664	0	143
62	8760	0	143
62	9976	0	144
62	11168	0	144
62	11480	0	144
62	12568	0	144
62	12736	0	144
63	94	0	64
63	190	0	94
63	196	0	94
63	210	0	96
63	228	0	98
63	280	0	103
63	355	0	109
63	449	0	112
63	488	0	114
63	652	0	117
63	664	0	117
63	672	0	117
63	962	0	130
63	964	0	130
63	1212	0	131
63	1240	0	132
63	1284	0	132
63	1626	0	136
63	1720	0	136
63	1760	0	136
63	2122	0	138
63	2130	0	138
63	2402	0	138
63	2412	0	138
63	3088	0	139
63	3308	0	142
63	3800	0	142
63	4896	0	142
63	5056	0	142
63	6364	0	142
63	6380	0	142
63	6456	0	142
63	6676	0	142
63	7272	0	143
63	7288	0	143
63	7992	0	143
63	8616	0	143
63	8632	0	143
63	10952	0	144
63	11160	0	144
63	11176	0	144
63	11448	0	144
63	11888	0	144
63	12952	0	144
64	95	0	65
64	150	0	83
64	166	0	87
64	431	0	110
64	782	0	122
64	1124	0	131
64	1148	0	131
64	1302	0	132
64	1312	0	132
64	1352	0	132
64	1878	0	138
64	2010	0	138
64	2050	0	138
64	2676	0	139
64	2704	0	139
64	2974	0	139
64	3000	0	139
64	3516	0	142
64	3700	0	142
64	3708	0	142
64	4616	0	142
64	5224	0	142
64	5360	0	142
64	6172	0	142
64	6184	0	142
64	6236	0	142
64	6268	0	142
64	6440	0	142
64	6988	0	143
64	7936	0	143
64	9912	0	143
64	9992	0	144
64	10016	0	144
64	11216	0	144
65	96	0	66
65	141	0	81
65	161	0	87
65	209	0	96
65	327	0	109
65	384	0	109
65	532	0	115
65	541	0	115
65	603	0	115
65	683	0	117
65	808	0	122
65	882	0	129
65	929	0	130
65	963	0	130
65	1350	0	132
65	1418	0	132
65	1422	0	132
65	1696	0	136
65	1972	0	138
65	2026	0	138
65	2098	0	138
65	2338	0	138
65	2528	0	138
65	2546	0	138
65	2688	0	139
65	2720	0	139
65	3312	0	142
65	4228	0	142
65	4364	0	142
65	4472	0	142
65	4524	0	142
65	4720	0	142
65	4988	0	142
65	5228	0	142
65	5576	0	142
65	6316	0	142
65	6468	0	142
65	8240	0	143
65	8952	0	143
65	10072	0	144
65	10096	0	144
65	11296	0	144
65	11376	0	144
65	12032	0	144
65	12392	0	144
66	97	0	67
66	165	0	87
66	173	0	90
66	301	0	104
66	581	0	115
66	604	0	115
66	621	0	115
66	670	0	117
66	674	0	117
66	713	0	117
66	768	0	119
66	884	0	129
66	947	0	130
66	1472	0	132
66	1528	0	132
66	1538	0	132
66	1642	0	136
66	1676	0	136
66	1830	0	136
66	1896	0	138
66	1932	0	138
66	1936	0	138
66	2524	0	138
66	2548	0	138
66	2670	0	139
66	2858	0	139
66	2890	0	139
66	2904	0	139
66	3096	0	139
66	3376	0	142
66	3448	0	142
66	3588	0	142
66	4448	0	142
66	4624	0	142
66	4776	0	142
66	6220	0	142
66	6304	0	142
66	6340	0	142
66	6984	0	143
66	8208	0	143
66	8376	0	143
66	9952	0	144
66	10128	0	144
66	11264	0	144
66	11656	0	144
67	100	0	68
67	183	0	93
67	247	0	99
67	253	0	99
67	302	0	104
67	353	0	109
67	422	0	110
67	448	0	112
67	533	0	115
67	580	0	115
67	647	0	117
67	653	0	117
67	661	0	117
67	681	0	117
67	747	0	119
67	788	0	122
67	914	0	130
67	1122	0	131
67	1230	0	132
67	1326	0	132
67	1400	0	132
67	1960	0	138
67	1984	0	138
67	2020	0	138
67	2116	0	138
67	2302	0	138
67	2310	0	138
67	2342	0	138
67	2374	0	138
67	2452	0	138
67	2566	0	138
67	2888	0	139
67	2964	0	139
67	3120	0	139
67	3556	0	142
67	4128	0	142
67	4292	0	142
67	4428	0	142
67	4704	0	142
67	4780	0	142
67	4924	0	142
67	5232	0	142
67	5692	0	142
67	5728	0	142
67	6188	0	142
67	6692	0	142
67	8016	0	143
67	8272	0	143
67	8432	0	143
67	8856	0	143
67	9304	0	143
67	9400	0	143
67	10024	0	144
67	10160	0	144
68	103	0	69
68	262	0	100
68	363	0	109
68	503	0	115
68	984	0	130
68	1088	0	131
68	1234	0	132
68	1508	0	132
68	1572	0	136
68	1666	0	136
68	2782	0	139
68	3144	0	139
68	4004	0	142
68	5792	0	142
68	5832	0	142
68	5908	0	142
68	6068	0	142
68	6596	0	142
68	6628	0	142
68	6916	0	143
68	6976	0	143
68	7424	0	143
68	8488	0	143
68	9008	0	143
68	10280	0	144
68	10376	0	144
68	11000	0	144
69	106	0	70
69	637	0	115
69	811	0	122
69	824	0	124
69	826	0	124
69	854	0	129
69	857	0	129
69	864	0	129
69	982	0	130
69	1070	0	131
69	1548	0	132
69	1560	0	133
69	2768	0	139
69	2780	0	139
69	3644	0	142
69	3652	0	142
69	5772	0	142
69	6092	0	142
69	6548	0	142
69	6756	0	142
69	6908	0	142
69	13072	0	144
70	108	0	71
70	198	0	94
70	291	0	103
70	459	0	112
70	504	0	115
70	514	0	115
70	547	0	115
70	599	0	115
70	754	0	119
70	1140	0	131
70	1244	0	132
70	2078	0	138
70	2086	0	138
70	2536	0	138
70	3768	0	142
70	4212	0	142
70	5664	0	142
70	10992	0	144
70	11792	0	144
70	12992	0	144
71	112	0	72
71	114	0	72
71	368	0	109
71	447	0	112
71	496	0	114
71	645	0	117
71	979	0	130
71	1568	0	135
71	2526	0	138
71	4104	0	142
71	4784	0	142
71	5368	0	142
71	5744	0	142
71	6012	0	142
71	6864	0	142
71	7640	0	143
71	8536	0	143
71	9288	0	143
71	9960	0	144
71	12160	0	144
72	116	0	73
72	157	0	86
72	207	0	96
72	252	0	99
72	282	0	103
72	430	0	110
72	544	0	115
72	631	0	115
72	718	0	117
72	723	0	117
72	737	0	119
72	908	0	130
72	944	0	130
72	1168	0	131
72	1340	0	132
72	1366	0	132
72	1442	0	132
72	1846	0	136
72	1920	0	138
72	1982	0	138
72	2156	0	138
72	2380	0	138
72	2580	0	138
72	2690	0	139
72	3184	0	139
72	3484	0	142
72	3912	0	142
72	4132	0	142
72	4184	0	142
72	4240	0	142
72	4440	0	142
72	4476	0	142
72	4980	0	142
72	5220	0	142
72	5476	0	142
72	5840	0	142
72	6512	0	142
72	6712	0	142
72	7240	0	143
72	8288	0	143
72	9640	0	143
72	9688	0	143
72	10520	0	144
72	10552	0	144
72	11472	0	144
72	12040	0	144
72	12416	0	144
72	12712	0	144
73	121	0	74
73	181	0	93
73	334	0	109
73	344	0	109
73	410	0	110
73	482	0	113
73	576	0	115
73	629	0	115
73	687	0	117
73	800	0	122
73	871	0	129
73	1220	0	132
73	1344	0	132
73	1432	0	132
73	1602	0	136
73	1614	0	136
73	1848	0	136
73	1976	0	138
73	2118	0	138
73	2144	0	138
73	2240	0	138
73	2414	0	138
73	3124	0	139
73	3336	0	142
73	3752	0	142
73	4444	0	142
73	4732	0	142
73	5452	0	142
73	5488	0	142
73	5704	0	142
73	6108	0	142
73	6224	0	142
73	7232	0	143
73	7928	0	143
73	8088	0	143
73	9880	0	143
73	9984	0	144
73	11552	0	144
73	12720	0	144
74	123	0	75
74	421	0	110
74	453	0	112
74	473	0	112
74	535	0	115
74	553	0	115
74	578	0	115
74	626	0	115
74	655	0	117
74	891	0	129
74	941	0	130
74	954	0	130
74	1126	0	131
74	1156	0	131
74	1338	0	132
74	1346	0	132
74	1370	0	132
74	1794	0	136
74	1968	0	138
74	2128	0	138
74	2246	0	138
74	2320	0	138
74	2728	0	139
74	2840	0	139
74	3232	0	139
74	3940	0	142
74	4516	0	142
74	5020	0	142
74	5072	0	142
74	5496	0	142
74	5604	0	142
74	6288	0	142
74	6992	0	143
74	7000	0	143
74	7344	0	143
74	8040	0	143
74	8576	0	143
74	8600	0	143
74	8680	0	143
74	9632	0	143
74	9904	0	143
74	10664	0	144
74	11232	0	144
74	11576	0	144
74	11592	0	144
74	12400	0	144
74	12744	0	144
74	12880	0	144
75	125	0	76
75	202	0	95
75	224	0	98
75	319	0	107
75	341	0	109
75	406	0	110
75	412	0	110
75	477	0	113
75	587	0	115
75	720	0	117
75	877	0	129
75	904	0	130
75	948	0	130
75	960	0	130
75	1128	0	131
75	1164	0	131
75	1254	0	132
75	1430	0	132
75	1644	0	136
75	1850	0	136
75	1910	0	138
75	2230	0	138
75	2322	0	138
75	3244	0	139
75	3256	0	139
75	3532	0	142
75	4688	0	142
75	5092	0	142
75	5248	0	142
75	5260	0	142
75	5584	0	142
75	6672	0	142
75	8184	0	143
75	8328	0	143
75	9680	0	143
75	10744	0	144
75	10824	0	144
76	127	0	77
76	420	0	110
76	550	0	115
76	562	0	115
76	575	0	115
76	582	0	115
76	688	0	117
76	795	0	122
76	1112	0	131
76	1136	0	131
76	1150	0	131
76	1296	0	132
76	1310	0	132
76	1486	0	132
76	1590	0	136
76	1600	0	136
76	1638	0	136
76	1658	0	136
76	2112	0	138
76	2198	0	138
76	2206	0	138
76	2292	0	138
76	2370	0	138
76	2822	0	139
76	2932	0	139
76	2954	0	139
76	3684	0	142
76	3908	0	142
76	4232	0	142
76	4324	0	142
76	4612	0	142
76	5004	0	142
76	5100	0	142
76	5312	0	142
76	5392	0	142
76	5428	0	142
76	5456	0	142
76	6180	0	142
76	6476	0	142
76	6704	0	142
76	7960	0	143
76	8064	0	143
76	9344	0	143
76	9360	0	143
76	9416	0	143
76	9440	0	143
76	10536	0	144
76	11680	0	144
76	12264	0	144
76	12752	0	144
76	13160	0	144
77	130	0	78
77	217	0	96
77	260	0	99
77	290	0	103
77	358	0	109
77	392	0	109
77	548	0	115
77	1498	0	132
77	1576	0	136
77	2088	0	138
77	2696	0	139
77	3148	0	139
77	3156	0	139
77	3204	0	139
77	3828	0	142
77	3884	0	142
77	4160	0	142
77	5680	0	142
77	6060	0	142
77	11928	0	144
78	131	0	79
78	218	0	96
78	231	0	99
78	349	0	109
78	460	0	112
78	805	0	122
78	1268	0	132
78	1534	0	132
78	2182	0	138
78	3368	0	142
78	4492	0	142
78	5508	0	142
78	5532	0	142
78	6052	0	142
78	7536	0	143
78	9496	0	143
78	10480	0	144
78	12672	0	144
78	13296	0	144
79	134	0	80
79	5184	0	142
79	6428	0	142
80	138	0	81
80	194	0	94
80	423	0	110
80	468	0	112
80	564	0	115
80	619	0	115
80	648	0	117
80	659	0	117
80	707	0	117
80	789	0	122
80	887	0	129
80	910	0	130
80	1468	0	132
80	1494	0	132
80	1544	0	132
80	1718	0	136
80	2522	0	138
80	2614	0	138
80	2644	0	139
80	2660	0	139
80	3856	0	142
80	4236	0	142
80	4500	0	142
80	4576	0	142
80	4636	0	142
80	4684	0	142
80	4696	0	142
80	4708	0	142
80	4892	0	142
80	4912	0	142
80	4940	0	142
80	5064	0	142
80	5284	0	142
80	5468	0	142
80	6352	0	142
80	8872	0	143
80	8904	0	143
80	8992	0	143
80	10880	0	144
80	10960	0	144
80	10976	0	144
80	11536	0	144
80	11976	0	144
80	12424	0	144
80	12920	0	144
81	146	0	82
81	215	0	96
81	395	0	109
81	425	0	110
81	470	0	112
81	506	0	115
81	508	0	115
81	554	0	115
81	802	0	122
81	869	0	129
81	1436	0	132
81	1598	0	136
81	1728	0	136
81	2044	0	138
81	2170	0	138
81	2274	0	138
81	2306	0	138
81	2556	0	138
81	2640	0	139
81	2966	0	139
81	3584	0	142
81	3980	0	142
81	4112	0	142
81	4284	0	142
81	4304	0	142
81	4348	0	142
81	4772	0	142
81	4932	0	142
81	5432	0	142
81	6036	0	142
81	6332	0	142
81	6464	0	142
81	7208	0	143
81	7248	0	143
81	7944	0	143
81	8464	0	143
81	10000	0	144
81	10568	0	144
81	10584	0	144
81	11504	0	144
81	11840	0	144
81	11968	0	144
81	12008	0	144
81	12512	0	144
82	148	0	83
82	192	0	94
82	227	0	98
82	345	0	109
82	405	0	110
82	522	0	115
82	1182	0	131
82	1372	0	132
82	1398	0	132
82	1428	0	132
82	1518	0	132
82	1592	0	136
82	1612	0	136
82	1634	0	136
82	1684	0	136
82	1700	0	136
82	1736	0	136
82	1890	0	138
82	2072	0	138
82	2666	0	139
82	3248	0	139
82	3320	0	142
82	3504	0	142
82	3696	0	142
82	4116	0	142
82	4520	0	142
82	6208	0	142
82	6480	0	142
82	7352	0	143
82	7968	0	143
82	10528	0	144
82	11248	0	144
82	11600	0	144
83	153	0	84
83	175	0	90
83	180	0	93
83	696	0	117
83	894	0	129
83	897	0	129
83	961	0	130
83	1624	0	136
83	1692	0	136
83	1764	0	136
83	1790	0	136
83	1988	0	138
83	1994	0	138
83	2002	0	138
83	2006	0	138
83	2058	0	138
83	2064	0	138
83	2068	0	138
83	2224	0	138
83	2358	0	138
83	2616	0	138
83	2918	0	139
83	3260	0	139
83	3304	0	142
83	3936	0	142
83	5108	0	142
83	6284	0	142
83	6660	0	142
83	8176	0	143
83	8608	0	143
83	8784	0	143
83	13120	0	144
84	154	0	85
84	407	0	110
84	739	0	119
84	743	0	119
84	926	0	130
84	957	0	130
84	1202	0	131
84	1912	0	138
84	2914	0	139
84	3704	0	142
84	5172	0	142
84	5352	0	142
84	6280	0	142
84	8112	0	143
84	8136	0	143
84	8160	0	143
84	11320	0	144
84	12792	0	144
85	155	0	86
85	177	0	91
85	299	0	104
85	313	0	104
85	791	0	122
85	876	0	129
85	896	0	129
85	1316	0	132
85	1646	0	136
85	2386	0	138
85	3932	0	142
85	5128	0	142
85	5252	0	142
85	5348	0	142
85	6396	0	142
85	6404	0	142
85	6664	0	142
85	12288	0	144
85	12528	0	144
85	12816	0	144
86	160	0	87
86	366	0	109
86	433	0	110
86	515	0	115
86	545	0	115
86	694	0	117
86	766	0	119
86	868	0	129
86	879	0	129
86	932	0	130
86	1120	0	131
86	1250	0	132
86	1274	0	132
86	1278	0	132
86	1934	0	138
86	2276	0	138
86	2288	0	138
86	2404	0	138
86	2408	0	138
86	2426	0	138
86	2612	0	138
86	2870	0	139
86	2952	0	139
86	3112	0	139
86	3340	0	142
86	3424	0	142
86	3864	0	142
86	4224	0	142
86	4260	0	142
86	4928	0	142
86	4960	0	142
86	5420	0	142
86	6344	0	142
86	6700	0	142
86	8408	0	143
86	8752	0	143
86	9312	0	143
86	9384	0	143
86	9928	0	143
86	10104	0	144
86	10136	0	144
86	10504	0	144
86	10632	0	144
86	11464	0	144
86	12360	0	144
86	12376	0	144
86	13280	0	144
87	167	0	88
87	409	0	110
87	525	0	115
87	732	0	119
87	875	0	129
87	922	0	130
87	953	0	130
87	1190	0	131
87	1304	0	132
87	1688	0	136
87	1766	0	136
87	1770	0	136
87	1774	0	136
87	1950	0	138
87	2054	0	138
87	2388	0	138
87	2440	0	138
87	2622	0	139
87	2998	0	139
87	4736	0	142
87	6232	0	142
87	6272	0	142
87	8584	0	143
87	9600	0	143
87	9736	0	143
87	10792	0	144
87	11360	0	144
87	12536	0	144
87	12840	0	144
88	168	0	89
88	315	0	104
88	455	0	112
88	614	0	115
88	874	0	129
88	956	0	130
88	1192	0	131
88	1204	0	131
88	1368	0	132
88	1946	0	138
88	2052	0	138
88	2438	0	138
88	2982	0	139
88	5204	0	142
88	5412	0	142
88	8776	0	143
88	10760	0	144
88	10784	0	144
88	11344	0	144
88	12296	0	144
88	12544	0	144
88	12832	0	144
89	170	0	90
89	195	0	94
89	491	0	114
89	520	0	115
89	528	0	115
89	560	0	115
89	588	0	115
89	656	0	117
89	787	0	122
89	890	0	129
89	918	0	130
89	933	0	130
89	950	0	130
89	1356	0	132
89	1410	0	132
89	1478	0	132
89	1704	0	136
89	1758	0	136
89	1814	0	136
89	1966	0	138
89	2126	0	138
89	2236	0	138
89	2270	0	138
89	2378	0	138
89	2398	0	138
89	2564	0	138
89	2584	0	138
89	2946	0	139
89	3108	0	139
89	3252	0	139
89	3316	0	142
89	3488	0	142
89	3944	0	142
89	3992	0	142
89	4900	0	142
89	4984	0	142
89	5152	0	142
89	5632	0	142
89	8568	0	143
89	8640	0	143
89	9376	0	143
89	10872	0	144
89	12776	0	144
89	13184	0	144
90	176	0	91
90	476	0	113
90	727	0	118
90	792	0	122
90	899	0	129
90	1320	0	132
90	1336	0	132
90	1618	0	136
90	1622	0	136
90	2000	0	138
90	2138	0	138
90	2324	0	138
90	2988	0	139
90	2994	0	139
90	5024	0	142
90	5076	0	142
90	5116	0	142
90	5132	0	142
90	5264	0	142
90	6168	0	142
90	6668	0	142
90	6996	0	143
90	7192	0	143
90	9624	0	143
90	12304	0	144
90	12320	0	144
90	12800	0	144
91	178	0	92
91	408	0	110
91	895	0	129
91	924	0	130
91	959	0	130
91	1992	0	138
91	2004	0	138
91	3528	0	142
91	5080	0	142
91	5596	0	142
91	10776	0	144
91	10800	0	144
91	12864	0	144
92	179	0	93
92	730	0	119
92	1198	0	131
92	2390	0	138
92	2996	0	139
92	3272	0	139
92	3280	0	141
92	3288	0	142
92	3296	0	142
92	3920	0	142
92	5112	0	142
92	8152	0	143
92	9616	0	143
93	185	0	94
93	269	0	102
93	276	0	102
93	332	0	109
93	505	0	115
93	540	0	115
93	679	0	117
93	702	0	117
93	711	0	117
93	750	0	119
93	759	0	119
93	906	0	130
93	966	0	130
93	1330	0	132
93	1402	0	132
93	1930	0	138
93	1974	0	138
93	2200	0	138
93	2538	0	138
93	2692	0	139
93	2868	0	139
93	3452	0	142
93	3468	0	142
93	3564	0	142
93	3596	0	142
93	3868	0	142
93	4372	0	142
93	4436	0	142
93	5388	0	142
93	5708	0	142
93	5736	0	142
93	5836	0	142
93	6320	0	142
93	6460	0	142
93	6652	0	142
93	8480	0	143
93	9000	0	143
93	9792	0	143
93	10120	0	144
93	10600	0	144
93	10656	0	144
93	12064	0	144
93	12368	0	144
94	199	0	95
94	254	0	99
94	485	0	113
94	549	0	115
94	753	0	119
94	785	0	122
94	1144	0	131
94	1172	0	131
94	1286	0	132
94	1754	0	136
94	2308	0	138
94	2534	0	138
94	2714	0	139
94	2808	0	139
94	2924	0	139
94	2930	0	139
94	3392	0	142
94	3904	0	142
94	4336	0	142
94	4432	0	142
94	4504	0	142
94	4656	0	142
94	4944	0	142
94	5640	0	142
94	6640	0	142
94	7528	0	143
94	11528	0	144
94	12000	0	144
94	12968	0	144
94	13200	0	144
95	205	0	96
95	429	0	110
95	592	0	115
95	716	0	117
95	758	0	119
95	786	0	122
95	935	0	130
95	1378	0	132
95	1390	0	132
95	1444	0	132
95	1682	0	136
95	1732	0	136
95	2012	0	138
95	2114	0	138
95	2268	0	138
95	2958	0	139
95	3116	0	139
95	3132	0	139
95	3416	0	142
95	3580	0	142
95	3736	0	142
95	3760	0	142
95	3876	0	142
95	3892	0	142
95	6240	0	142
95	6488	0	142
95	7376	0	143
95	8840	0	143
95	9872	0	143
95	10616	0	144
95	10936	0	144
95	12944	0	144
96	219	0	97
96	2164	0	138
96	2252	0	138
96	3432	0	142
96	3572	0	142
96	5528	0	142
96	5668	0	142
96	5684	0	142
96	6048	0	142
96	11768	0	144
96	11800	0	144
96	13264	0	144
97	221	0	98
97	240	0	99
97	563	0	115
97	872	0	129
97	936	0	130
97	1588	0	136
97	1856	0	136
97	2042	0	138
97	2444	0	138
97	2646	0	139
97	2838	0	139
97	2960	0	139
97	3220	0	139
97	3740	0	142
97	3792	0	142
97	3808	0	142
97	4192	0	142
97	4256	0	142
97	4388	0	142
97	4420	0	142
97	5404	0	142
97	5620	0	142
97	6024	0	142
97	6152	0	142
97	8104	0	143
97	8128	0	143
97	8296	0	143
97	8792	0	143
97	8912	0	143
97	9888	0	143
97	12048	0	144
97	12448	0	144
97	12552	0	144
98	229	0	99
98	270	0	102
98	274	0	102
98	402	0	110
98	551	0	115
98	584	0	115
98	704	0	117
98	724	0	117
98	770	0	119
98	781	0	122
98	965	0	130
98	1114	0	131
98	1324	0	132
98	1384	0	132
98	1628	0	136
98	1712	0	136
98	1900	0	138
98	2022	0	138
98	2132	0	138
98	2142	0	138
98	2152	0	138
98	2668	0	139
98	2706	0	139
98	2726	0	139
98	2900	0	139
98	3508	0	142
98	4356	0	142
98	4376	0	142
98	4552	0	142
98	5560	0	142
98	5572	0	142
98	6292	0	142
98	8440	0	143
98	9456	0	143
98	10736	0	144
98	11664	0	144
98	11848	0	144
98	12072	0	144
99	261	0	100
99	288	0	103
99	569	0	115
99	1142	0	131
99	1574	0	136
99	1578	0	136
99	5676	0	142
99	6528	0	142
99	10408	0	144
99	11008	0	144
100	263	0	101
100	265	0	102
100	284	0	103
100	286	0	103
100	373	0	109
100	853	0	129
100	991	0	130
100	1076	0	131
100	1102	0	131
100	2484	0	138
100	2494	0	138
100	2508	0	138
100	2512	0	138
100	2630	0	139
100	2634	0	139
100	2784	0	139
100	4072	0	142
100	5800	0	142
100	5828	0	142
100	5916	0	142
100	6616	0	142
100	6772	0	142
100	7392	0	143
100	7416	0	143
100	7432	0	143
100	7744	0	143
100	10184	0	144
101	264	0	102
101	376	0	109
101	500	0	115
101	817	0	123
101	820	0	123
101	822	0	124
101	828	0	124
101	837	0	127
101	860	0	129
101	1016	0	130
101	1042	0	130
101	1068	0	131
101	1082	0	131
101	2482	0	138
101	2598	0	138
101	2758	0	139
101	4052	0	142
101	4804	0	142
101	5812	0	142
101	5860	0	142
101	5992	0	142
101	6556	0	142
101	6736	0	142
101	6960	0	143
101	7408	0	143
101	9128	0	143
101	9264	0	143
101	10208	0	144
101	10264	0	144
101	10344	0	144
101	11064	0	144
101	13016	0	144
102	278	0	103
102	295	0	104
102	566	0	115
102	685	0	117
102	1872	0	138
102	3168	0	139
102	3196	0	139
102	4416	0	142
102	4876	0	142
102	5180	0	142
102	5192	0	142
102	5616	0	142
102	6432	0	142
102	8808	0	143
102	13256	0	144
102	13304	0	145
103	292	0	104
103	461	0	112
103	570	0	115
103	1580	0	136
103	2928	0	139
103	3388	0	142
103	5512	0	142
103	5524	0	142
103	11744	0	144
103	12640	0	144
103	12976	0	144
103	13224	0	144
104	316	0	105
104	958	0	130
104	1200	0	131
104	2328	0	138
104	2618	0	139
104	2654	0	139
104	3928	0	142
104	7184	0	143
104	11328	0	144
104	12312	0	144
104	12808	0	144
105	317	0	106
105	729	0	119
105	925	0	130
105	1306	0	132
105	1990	0	138
105	2136	0	138
105	2222	0	138
105	2228	0	138
105	2326	0	138
105	2360	0	138
105	2364	0	138
105	2620	0	139
105	2990	0	139
105	5084	0	142
105	5124	0	142
105	6276	0	142
105	9728	0	143
105	11352	0	144
106	318	0	107
106	920	0	130
106	1196	0	131
106	1768	0	136
106	1784	0	136
106	1788	0	136
106	1826	0	136
106	2220	0	138
106	2330	0	138
106	2362	0	138
106	2436	0	138
106	2656	0	139
106	2992	0	139
106	3268	0	139
106	3284	0	141
106	4568	0	142
106	5120	0	142
106	5136	0	142
106	6392	0	142
106	6400	0	142
106	11224	0	144
106	12872	0	144
107	320	0	108
107	342	0	109
107	381	0	109
107	386	0	109
107	543	0	115
107	595	0	115
107	623	0	115
107	627	0	115
107	657	0	117
107	663	0	117
107	807	0	122
107	952	0	130
107	1160	0	131
107	1416	0	132
107	1686	0	136
107	1762	0	136
107	1996	0	138
107	2190	0	138
107	2278	0	138
107	2352	0	138
107	2642	0	139
107	2876	0	139
107	3240	0	139
107	4092	0	142
107	4296	0	142
107	4952	0	142
107	5424	0	142
107	6112	0	142
107	6648	0	142
107	8056	0	143
107	8944	0	143
107	10640	0	144
107	10752	0	144
107	11240	0	144
107	11632	0	144
107	13128	0	144
108	322	0	109
108	340	0	109
108	413	0	110
108	523	0	115
108	616	0	115
108	714	0	117
108	763	0	119
108	881	0	129
108	931	0	130
108	1524	0	132
108	1606	0	136
108	1630	0	136
108	1744	0	136
108	1748	0	136
108	2036	0	138
108	2104	0	138
108	2312	0	138
108	2970	0	139
108	3136	0	139
108	3512	0	142
108	3592	0	142
108	3968	0	142
108	4172	0	142
108	4512	0	142
108	4648	0	142
108	5372	0	142
108	6328	0	142
108	7368	0	143
108	7912	0	143
108	8200	0	143
108	9296	0	143
108	9328	0	143
108	10448	0	144
108	13096	0	144
109	396	0	110
109	411	0	110
109	534	0	115
109	542	0	115
109	658	0	117
109	700	0	117
109	1214	0	131
109	2544	0	138
109	2682	0	139
109	2730	0	139
109	2860	0	139
109	2902	0	139
109	3228	0	139
109	3344	0	142
109	5000	0	142
109	5068	0	142
109	5096	0	142
109	5364	0	142
109	5380	0	142
109	5740	0	142
109	6688	0	142
109	6708	0	142
109	8960	0	143
109	9472	0	143
109	9840	0	143
109	9920	0	143
109	10080	0	144
109	10680	0	144
109	10832	0	144
110	442	0	111
110	635	0	115
110	981	0	130
110	1054	0	131
110	1506	0	132
110	1552	0	132
110	1664	0	136
110	1668	0	136
110	4024	0	142
110	4788	0	142
110	5808	0	142
110	6096	0	142
110	6624	0	142
110	7560	0	143
110	7656	0	143
110	8528	0	143
110	9016	0	143
110	10224	0	144
110	11072	0	144
111	446	0	112
111	989	0	130
111	1460	0	132
111	2462	0	138
111	2592	0	138
111	2762	0	139
111	4032	0	142
111	5944	0	142
111	6868	0	142
111	7448	0	143
111	7648	0	143
112	475	0	113
112	721	0	117
112	734	0	119
112	901	0	130
112	921	0	130
112	1772	0	136
112	1786	0	136
112	1948	0	138
112	1952	0	138
112	2366	0	138
112	2394	0	138
112	2652	0	139
112	2978	0	139
112	5028	0	142
112	5168	0	142
112	8592	0	143
112	10768	0	144
112	10808	0	144
113	487	0	114
113	608	0	115
113	772	0	119
113	888	0	129
113	1208	0	131
113	1224	0	132
113	1318	0	132
113	1358	0	132
113	1636	0	136
113	1690	0	136
113	1776	0	136
113	2070	0	138
113	2120	0	138
113	2280	0	138
113	2314	0	138
113	2384	0	138
113	2650	0	139
113	4272	0	142
113	5088	0	142
113	5460	0	142
113	5564	0	142
113	6228	0	142
113	6260	0	142
113	6388	0	142
113	7920	0	143
113	9744	0	143
113	11192	0	144
113	11208	0	144
113	11544	0	144
114	497	0	115
114	1000	0	130
114	1554	0	132
114	1670	0	136
114	2460	0	138
114	3060	0	139
114	4020	0	142
114	7456	0	143
114	10232	0	144
115	639	0	116
115	830	0	124
115	839	0	128
115	842	0	129
115	845	0	129
115	1012	0	130
115	1040	0	130
115	1046	0	130
115	1062	0	131
115	2748	0	139
115	3036	0	139
115	3048	0	139
115	3628	0	142
115	4040	0	142
115	5984	0	142
115	6084	0	142
115	6740	0	142
115	6784	0	142
115	6956	0	143
115	7712	0	143
115	8504	0	143
115	9240	0	143
115	10312	0	144
115	12112	0	144
115	13056	0	144
116	643	0	117
116	812	0	122
116	814	0	122
116	847	0	129
116	970	0	130
116	977	0	130
116	986	0	130
116	994	0	130
116	998	0	130
116	1028	0	130
116	1056	0	131
116	1080	0	131
116	2492	0	138
116	3056	0	139
116	3624	0	142
116	3632	0	142
116	5748	0	142
116	6000	0	142
116	6560	0	142
116	6744	0	142
116	9072	0	143
116	9216	0	143
116	10360	0	144
116	12096	0	144
117	725	0	118
117	774	0	119
117	780	0	122
117	1710	0	136
117	5036	0	142
117	5492	0	142
118	728	0	119
118	733	0	119
118	923	0	130
118	1782	0	136
118	2056	0	138
118	2356	0	138
118	2392	0	138
118	5256	0	142
118	5588	0	142
118	8168	0	143
118	9664	0	143
118	12848	0	144
119	775	0	120
119	779	0	122
120	776	0	121
120	778	0	122
120	7072	0	143
120	7112	0	143
120	7144	0	143
121	777	0	122
121	7016	0	143
121	7160	0	143
122	816	0	123
122	972	0	130
122	1064	0	131
122	3012	0	139
122	3020	0	139
122	5884	0	142
122	6796	0	142
122	6852	0	142
122	7704	0	143
122	7720	0	143
122	9184	0	143
122	11096	0	144
122	11120	0	144
122	12136	0	144
123	821	0	124
123	836	0	127
123	1008	0	130
123	2798	0	139
123	5756	0	142
123	5856	0	142
123	10296	0	144
124	831	0	125
124	834	0	126
124	844	0	129
124	974	0	130
124	1048	0	130
124	1060	0	131
124	3008	0	139
124	3040	0	139
124	5764	0	142
124	5880	0	142
124	5972	0	142
124	6824	0	142
124	6848	0	142
124	7696	0	143
124	9040	0	143
124	9200	0	143
125	833	0	126
125	969	0	130
125	975	0	130
125	987	0	130
125	1044	0	130
125	2774	0	139
125	3616	0	142
125	5924	0	142
125	5976	0	142
125	6948	0	143
125	7672	0	143
125	7688	0	143
125	8512	0	143
125	9144	0	143
125	9272	0	143
126	835	0	127
126	840	0	128
126	843	0	129
126	1010	0	130
126	2800	0	139
126	5760	0	142
126	5876	0	142
126	9096	0	143
126	10304	0	144
126	13048	0	144
127	838	0	128
127	861	0	129
127	1024	0	130
127	2752	0	139
127	5816	0	142
127	5928	0	142
127	5968	0	142
127	6792	0	142
127	6816	0	142
127	6828	0	142
127	6884	0	142
127	6896	0	142
127	12104	0	144
128	841	0	129
128	856	0	129
128	1006	0	130
128	1018	0	130
128	1090	0	131
128	2632	0	139
128	2802	0	139
128	3072	0	139
128	5784	0	142
128	5872	0	142
128	6728	0	142
128	6780	0	142
128	9088	0	143
128	9104	0	143
128	10272	0	144
128	10384	0	144
128	13040	0	144
129	900	0	130
129	1780	0	136
129	2066	0	138
129	3264	0	139
129	3292	0	142
129	3524	0	142
129	8144	0	143
129	11336	0	144
130	1050	0	131
130	2750	0	139
130	6800	0	142
130	6856	0	142
130	6892	0	142
130	9048	0	143
130	9152	0	143
130	12120	0	144
131	1620	0	136
131	3276	0	140
131	3924	0	142
131	5592	0	142
131	7176	0	143
131	12856	0	144
132	1866	0	137
133	2486	0	138
133	6924	0	143
133	7752	0	143
133	7784	0	143
133	7816	0	143
133	7888	0	143
133	11024	0	144
134	5516	0	142
134	5660	0	142
134	6128	0	142
135	7008	0	143
135	7040	0	143
136	7024	0	143
136	7048	0	143
136	7064	0	143
136	7088	0	143
136	7136	0	143
136	7152	0	143
137	7032	0	143
137	7168	0	143
138	7056	0	143
138	7104	0	143
138	7128	0	143
139	7080	0	143
139	7096	0	143
139	7120	0	143
140	7760	0	143
140	7808	0	143
140	7824	0	143
140	7840	0	143
140	7856	0	143
140	7872	0	143
141	7768	0	143
141	7800	0	143
141	7864	0	143
142	7776	0	143
142	7792	0	143
142	7832	0	143
142	7848	0	143
142	7880	0	143

