file 40614 1756984393                                           
version 3
run General-46-20250904-14:13:13-15276
attr configname General
attr datetime 20250904-14:13:13
attr datetimef 20250904-141313
attr experiment General
attr inifile omnetpp.ini
attr iterationvars ""
attr iterationvarsd ""
attr iterationvarsf ""
attr measurement ""
attr network TaxiNetwork
attr processid 15276
attr repetition 46
attr replication #46
attr resultdir results
attr runnumber 46
attr seedset 46
config network TaxiNetwork
config seed-set 46
config num-rngs 1
config sim-time-limit 10s
config repeat 500
config *.numWalkers 1
config *.enableDuplication true
config *.rc 700
config **.node[0].xCor 2933
config **.node[0].yCor 2747
config **.node[1].xCor 2919
config **.node[1].yCor 2817
config **.node[2].xCor 2910
config **.node[2].yCor 2861
config **.node[3].xCor 2429
config **.node[3].yCor 2851
config **.node[4].xCor 2908
config **.node[4].yCor 2714
config **.node[5].xCor 2606
config **.node[5].yCor 2722
config **.node[6].xCor 2575
config **.node[6].yCor 2753
config **.node[7].xCor 2654
config **.node[7].yCor 2513
config **.node[8].xCor 2773
config **.node[8].yCor 2580
config **.node[9].xCor 3043
config **.node[9].yCor 2780
config **.node[10].xCor 3020
config **.node[10].yCor 2813
config **.node[11].xCor 2599
config **.node[11].yCor 2300
config **.node[12].xCor 2917
config **.node[12].yCor 2698
config **.node[13].xCor 2625
config **.node[13].yCor 2641
config **.node[14].xCor 2604
config **.node[14].yCor 2790
config **.node[15].xCor 2786
config **.node[15].yCor 3082
config **.node[16].xCor 2603
config **.node[16].yCor 2802
config **.node[17].xCor 2637
config **.node[17].yCor 2869
config **.node[18].xCor 2675
config **.node[18].yCor 2955
config **.node[19].xCor 2845
config **.node[19].yCor 2937
config **.node[20].xCor 2860
config **.node[20].yCor 2888
config **.node[21].xCor 2843
config **.node[21].yCor 4158
config **.node[22].xCor 2852
config **.node[22].yCor 4017
config **.node[23].xCor 2892
config **.node[23].yCor 4961
config **.node[24].xCor 2313
config **.node[24].yCor 3993
config **.node[25].xCor 2891
config **.node[25].yCor 4959
config **.node[26].xCor 2370
config **.node[26].yCor 4050
config **.node[27].xCor 2788
config **.node[27].yCor 3958
config **.node[28].xCor 2819
config **.node[28].yCor 4428
config **.node[29].xCor 2790
config **.node[29].yCor 3761
config **.node[30].xCor 2809
config **.node[30].yCor 2908
config **.node[31].xCor 2919
config **.node[31].yCor 3575
config **.node[32].xCor 2946
config **.node[32].yCor 3466
config **.node[33].xCor 2911
config **.node[33].yCor 3453
config **.node[34].xCor 2370
config **.node[34].yCor 3656
config **.node[35].xCor 2438
config **.node[35].yCor 3738
config **.node[36].xCor 2737
config **.node[36].yCor 3570
config **.node[37].xCor 2921
config **.node[37].yCor 3698
config **.node[38].xCor 2907
config **.node[38].yCor 5197
config **.node[39].xCor 2860
config **.node[39].yCor 3852
config **.node[40].xCor 2927
config **.node[40].yCor 3684
config **.node[41].xCor 3023
config **.node[41].yCor 5313
config **.node[42].xCor 3220
config **.node[42].yCor 5811
config **.node[43].xCor 3432
config **.node[43].yCor 5715
config **.node[44].xCor 2754
config **.node[44].yCor 2463
config **.node[45].xCor 2646
config **.node[45].yCor 2673
config **.node[46].xCor 3051
config **.node[46].yCor 2792
config **.node[47].xCor 1666
config **.node[47].yCor 3697
config **.node[48].xCor 1662
config **.node[48].yCor 3694
config **.node[49].xCor 1664
config **.node[49].yCor 3667
config **.node[50].xCor 1660
config **.node[50].yCor 3664
config **.node[51].xCor 1710
config **.node[51].yCor 3573
config **.node[52].xCor 2082
config **.node[52].yCor 2650
config **.node[53].xCor 2086
config **.node[53].yCor 2657
config **.node[54].xCor 2257
config **.node[54].yCor 3232
config **.node[55].xCor 2258
config **.node[55].yCor 3225
config **.node[56].xCor 1926
config **.node[56].yCor 2570
config **.node[57].xCor 1926
config **.node[57].yCor 2576
config **.node[58].xCor 2104
config **.node[58].yCor 1758
config **.node[59].xCor 1957
config **.node[59].yCor 1826
config **.node[60].xCor 3473
config **.node[60].yCor 1523
config **.node[61].xCor 3335
config **.node[61].yCor 1726
config **.node[62].xCor 3478
config **.node[62].yCor 1517
config **.node[63].xCor 3386
config **.node[63].yCor 2119
config **.node[64].xCor 3474
config **.node[64].yCor 1762
config **.node[65].xCor 3797
config **.node[65].yCor 2099
config **.node[66].xCor 3642
config **.node[66].yCor 2136
config **.node[67].xCor 3481
config **.node[67].yCor 2334
config **.node[68].xCor 3088
config **.node[68].yCor 1505
config **.node[69].xCor 3037
config **.node[69].yCor 1693
config **.node[70].xCor 3026
config **.node[70].yCor 1700
config **.node[71].xCor 3019
config **.node[71].yCor 669
config **.node[72].xCor 3513
config **.node[72].yCor 1358
config **.node[73].xCor 3545
config **.node[73].yCor 1230
config **.node[74].xCor 4228
config **.node[74].yCor 4220
config **.node[75].xCor 3379
config **.node[75].yCor 1207
config **.node[76].xCor 3596
config **.node[76].yCor 963
config **.node[77].xCor 3637
config **.node[77].yCor 1188
config **.node[78].xCor 3759
config **.node[78].yCor 1030
config **.node[79].xCor 2918
config **.node[79].yCor 1455
config **.node[80].xCor 2711
config **.node[80].yCor 1297
config **.node[81].xCor 439
config **.node[81].yCor 1623
config **.node[82].xCor 2857
config **.node[82].yCor 3581
config **.node[83].xCor 2858
config **.node[83].yCor 3584
config **.node[84].xCor 2999
config **.node[84].yCor 2636
config **.node[85].xCor 2905
config **.node[85].yCor 2778
config **.node[86].xCor 2653
config **.node[86].yCor 2845
config **.node[87].xCor 2864
config **.node[87].yCor 2836
config **.node[88].xCor 2426
config **.node[88].yCor 2892
config **.node[89].xCor 2964
config **.node[89].yCor 2804
config **.node[90].xCor 2586
config **.node[90].yCor 3135
config **.node[91].xCor 2864
config **.node[91].yCor 2980
config **.node[92].xCor 2527
config **.node[92].yCor 3219
config **.node[93].xCor 2863
config **.node[93].yCor 3142
config **.node[94].xCor 2485
config **.node[94].yCor 3269
config **.node[95].xCor 2653
config **.node[95].yCor 1065
config **.node[96].xCor 4062
config **.node[96].yCor 400
config **.node[97].xCor 5762
config **.node[97].yCor 3023
config **.node[98].xCor 1414
config **.node[98].yCor 3461
config **.node[99].xCor 2911
config **.node[99].yCor 1737
config **.node[100].xCor 2595
config **.node[100].yCor 2299
config **.node[101].xCor 2702
config **.node[101].yCor 3419
config **.node[102].xCor 2813
config **.node[102].yCor 3307
config **.node[103].xCor 2638
config **.node[103].yCor 2258
config **.node[104].xCor 2590
config **.node[104].yCor 3125
config **.node[105].xCor 1856
config **.node[105].yCor 2990
config **.node[106].xCor 1894
config **.node[106].yCor 2239
config **.node[107].xCor 383
config **.node[107].yCor 1251
config **.node[108].xCor 3447
config **.node[108].yCor 5489
config **.node[109].xCor 3450
config **.node[109].yCor 5697
config **.node[110].xCor 2719
config **.node[110].yCor 1920
config **.node[111].xCor 2085
config **.node[111].yCor 2389
config **.node[112].xCor 1910
config **.node[112].yCor 2548
config **.node[113].xCor 2069
config **.node[113].yCor 2050
config **.node[114].xCor 2184
config **.node[114].yCor 2209
config **.node[115].xCor 2278
config **.node[115].yCor 2390
config **.node[116].xCor 2249
config **.node[116].yCor 2299
config **.node[117].xCor 2356
config **.node[117].yCor 2303
config **.node[118].xCor 2192
config **.node[118].yCor 2475
config **.node[119].xCor 1720
config **.node[119].yCor 2911
config **.node[120].xCor 2400
config **.node[120].yCor 2887
config **.node[121].xCor 3344
config **.node[121].yCor 1890
config **.node[122].xCor 3136
config **.node[122].yCor 2418
config **.node[123].xCor 3243
config **.node[123].yCor 2525
config **.node[124].xCor 2396
config **.node[124].yCor 1267
config **.node[125].xCor 467
config **.node[125].yCor 1875
config **.node[126].xCor 3506
config **.node[126].yCor 1221
config **.node[127].xCor 1034
config **.node[127].yCor 1474
config **.node[128].xCor 2908
config **.node[128].yCor 1784
config **.node[129].xCor 2876
config **.node[129].yCor 1761
config **.node[130].xCor 2849
config **.node[130].yCor 1795
config **.node[131].xCor 3029
config **.node[131].yCor 1859
config **.node[132].xCor 2924
config **.node[132].yCor 1848
config **.node[133].xCor 3493
config **.node[133].yCor 1559
config **.node[134].xCor 2760
config **.node[134].yCor 1761
config **.node[135].xCor 1644
config **.node[135].yCor 3755
config **.node[136].xCor 1463
config **.node[136].yCor 3432
config **.node[137].xCor 2595
config **.node[137].yCor 2849
config **.node[138].xCor 2581
config **.node[138].yCor 2867
config **.node[139].xCor 2524
config **.node[139].yCor 2911
config **.node[140].xCor 2570
config **.node[140].yCor 2924
config **.node[141].xCor 2676
config **.node[141].yCor 2890
config **.node[142].xCor 2666
config **.node[142].yCor 2876
config **.node[143].xCor 3735
config **.node[143].yCor 1726
config **.node[144].xCor 1637
config **.node[144].yCor 3438

vector 0 TaxiNetwork.node[5] visitedPerTimestep ETV
vector 1 TaxiNetwork.node[94] visitedPerTimestep ETV
vector 2 TaxiNetwork.node[33] visitedPerTimestep ETV
vector 3 TaxiNetwork.node[37] visitedPerTimestep ETV
vector 4 TaxiNetwork.node[35] visitedPerTimestep ETV
vector 5 TaxiNetwork.node[82] visitedPerTimestep ETV
vector 6 TaxiNetwork.node[31] visitedPerTimestep ETV
vector 7 TaxiNetwork.node[19] visitedPerTimestep ETV
vector 8 TaxiNetwork.node[8] visitedPerTimestep ETV
vector 9 TaxiNetwork.node[90] visitedPerTimestep ETV
vector 10 TaxiNetwork.node[45] visitedPerTimestep ETV
vector 11 TaxiNetwork.node[140] visitedPerTimestep ETV
vector 12 TaxiNetwork.node[32] visitedPerTimestep ETV
vector 13 TaxiNetwork.node[101] visitedPerTimestep ETV
vector 14 TaxiNetwork.node[29] visitedPerTimestep ETV
vector 15 TaxiNetwork.node[22] visitedPerTimestep ETV
vector 16 TaxiNetwork.node[26] visitedPerTimestep ETV
vector 17 TaxiNetwork.node[24] visitedPerTimestep ETV
vector 18 TaxiNetwork.node[34] visitedPerTimestep ETV
vector 19 TaxiNetwork.node[102] visitedPerTimestep ETV
vector 20 TaxiNetwork.node[10] visitedPerTimestep ETV
vector 21 TaxiNetwork.node[2] visitedPerTimestep ETV
vector 22 TaxiNetwork.node[122] visitedPerTimestep ETV
vector 23 TaxiNetwork.node[137] visitedPerTimestep ETV
vector 24 TaxiNetwork.node[13] visitedPerTimestep ETV
vector 25 TaxiNetwork.node[1] visitedPerTimestep ETV
vector 26 TaxiNetwork.node[86] visitedPerTimestep ETV
vector 27 TaxiNetwork.node[17] visitedPerTimestep ETV
vector 28 TaxiNetwork.node[54] visitedPerTimestep ETV
vector 29 TaxiNetwork.node[16] visitedPerTimestep ETV
vector 30 TaxiNetwork.node[18] visitedPerTimestep ETV
vector 31 TaxiNetwork.node[85] visitedPerTimestep ETV
vector 32 TaxiNetwork.node[0] visitedPerTimestep ETV
vector 33 TaxiNetwork.node[7] visitedPerTimestep ETV
vector 34 TaxiNetwork.node[84] visitedPerTimestep ETV
vector 35 TaxiNetwork.node[9] visitedPerTimestep ETV
vector 36 TaxiNetwork.node[115] visitedPerTimestep ETV
vector 37 TaxiNetwork.node[117] visitedPerTimestep ETV
vector 38 TaxiNetwork.node[89] visitedPerTimestep ETV
vector 39 TaxiNetwork.node[92] visitedPerTimestep ETV
vector 40 TaxiNetwork.node[139] visitedPerTimestep ETV
vector 41 TaxiNetwork.node[14] visitedPerTimestep ETV
vector 42 TaxiNetwork.node[138] visitedPerTimestep ETV
vector 43 TaxiNetwork.node[93] visitedPerTimestep ETV
vector 44 TaxiNetwork.node[55] visitedPerTimestep ETV
vector 45 TaxiNetwork.node[91] visitedPerTimestep ETV
vector 46 TaxiNetwork.node[100] visitedPerTimestep ETV
vector 47 TaxiNetwork.node[53] visitedPerTimestep ETV
vector 48 TaxiNetwork.node[3] visitedPerTimestep ETV
vector 49 TaxiNetwork.node[118] visitedPerTimestep ETV
vector 50 TaxiNetwork.node[6] visitedPerTimestep ETV
vector 51 TaxiNetwork.node[114] visitedPerTimestep ETV
vector 52 TaxiNetwork.node[110] visitedPerTimestep ETV
vector 53 TaxiNetwork.node[134] visitedPerTimestep ETV
vector 54 TaxiNetwork.node[68] visitedPerTimestep ETV
vector 55 TaxiNetwork.node[73] visitedPerTimestep ETV
vector 56 TaxiNetwork.node[80] visitedPerTimestep ETV
vector 57 TaxiNetwork.node[132] visitedPerTimestep ETV
vector 58 TaxiNetwork.node[127] visitedPerTimestep ETV
vector 59 TaxiNetwork.node[128] visitedPerTimestep ETV
vector 60 TaxiNetwork.node[44] visitedPerTimestep ETV
vector 61 TaxiNetwork.node[87] visitedPerTimestep ETV
vector 62 TaxiNetwork.node[27] visitedPerTimestep ETV
vector 63 TaxiNetwork.node[30] visitedPerTimestep ETV
vector 64 TaxiNetwork.node[15] visitedPerTimestep ETV
vector 65 TaxiNetwork.node[120] visitedPerTimestep ETV
vector 66 TaxiNetwork.node[11] visitedPerTimestep ETV
vector 67 TaxiNetwork.node[123] visitedPerTimestep ETV
vector 68 TaxiNetwork.node[121] visitedPerTimestep ETV
vector 69 TaxiNetwork.node[88] visitedPerTimestep ETV
vector 70 TaxiNetwork.node[103] visitedPerTimestep ETV
vector 71 TaxiNetwork.node[129] visitedPerTimestep ETV
vector 72 TaxiNetwork.node[60] visitedPerTimestep ETV
vector 73 TaxiNetwork.node[63] visitedPerTimestep ETV
vector 74 TaxiNetwork.node[69] visitedPerTimestep ETV
vector 75 TaxiNetwork.node[20] visitedPerTimestep ETV
vector 76 TaxiNetwork.node[74] visitedPerTimestep ETV
vector 77 TaxiNetwork.node[83] visitedPerTimestep ETV
vector 78 TaxiNetwork.node[52] visitedPerTimestep ETV
vector 79 TaxiNetwork.node[119] visitedPerTimestep ETV
vector 80 TaxiNetwork.node[105] visitedPerTimestep ETV
vector 81 TaxiNetwork.node[98] visitedPerTimestep ETV
vector 82 TaxiNetwork.node[144] visitedPerTimestep ETV
vector 83 TaxiNetwork.node[50] visitedPerTimestep ETV
vector 84 TaxiNetwork.node[135] visitedPerTimestep ETV
vector 85 TaxiNetwork.node[48] visitedPerTimestep ETV
vector 86 TaxiNetwork.node[136] visitedPerTimestep ETV
vector 87 TaxiNetwork.node[47] visitedPerTimestep ETV
vector 88 TaxiNetwork.node[49] visitedPerTimestep ETV
vector 89 TaxiNetwork.node[51] visitedPerTimestep ETV
vector 90 TaxiNetwork.node[141] visitedPerTimestep ETV
vector 91 TaxiNetwork.node[46] visitedPerTimestep ETV
vector 92 TaxiNetwork.node[116] visitedPerTimestep ETV
vector 93 TaxiNetwork.node[104] visitedPerTimestep ETV
vector 94 TaxiNetwork.node[40] visitedPerTimestep ETV
vector 95 TaxiNetwork.node[12] visitedPerTimestep ETV
vector 96 TaxiNetwork.node[4] visitedPerTimestep ETV
vector 97 TaxiNetwork.node[126] visitedPerTimestep ETV
vector 98 TaxiNetwork.node[79] visitedPerTimestep ETV
vector 99 TaxiNetwork.node[62] visitedPerTimestep ETV
vector 100 TaxiNetwork.node[99] visitedPerTimestep ETV
vector 101 TaxiNetwork.node[70] visitedPerTimestep ETV
vector 102 TaxiNetwork.node[75] visitedPerTimestep ETV
vector 103 TaxiNetwork.node[111] visitedPerTimestep ETV
vector 104 TaxiNetwork.node[57] visitedPerTimestep ETV
vector 105 TaxiNetwork.node[106] visitedPerTimestep ETV
vector 106 TaxiNetwork.node[39] visitedPerTimestep ETV
vector 107 TaxiNetwork.node[21] visitedPerTimestep ETV
vector 108 TaxiNetwork.node[36] visitedPerTimestep ETV
vector 109 TaxiNetwork.node[130] visitedPerTimestep ETV
vector 110 TaxiNetwork.node[113] visitedPerTimestep ETV
vector 111 TaxiNetwork.node[59] visitedPerTimestep ETV
vector 112 TaxiNetwork.node[56] visitedPerTimestep ETV
vector 113 TaxiNetwork.node[142] visitedPerTimestep ETV
vector 114 TaxiNetwork.node[131] visitedPerTimestep ETV
vector 115 TaxiNetwork.node[64] visitedPerTimestep ETV
vector 116 TaxiNetwork.node[71] visitedPerTimestep ETV
vector 117 TaxiNetwork.node[133] visitedPerTimestep ETV
vector 118 TaxiNetwork.node[58] visitedPerTimestep ETV
vector 119 TaxiNetwork.node[61] visitedPerTimestep ETV
vector 120 TaxiNetwork.node[66] visitedPerTimestep ETV
vector 121 TaxiNetwork.node[124] visitedPerTimestep ETV
vector 122 TaxiNetwork.node[72] visitedPerTimestep ETV
vector 123 TaxiNetwork.node[143] visitedPerTimestep ETV
vector 124 TaxiNetwork.node[76] visitedPerTimestep ETV
vector 125 TaxiNetwork.node[77] visitedPerTimestep ETV
vector 126 TaxiNetwork.node[65] visitedPerTimestep ETV
vector 127 TaxiNetwork.node[95] visitedPerTimestep ETV
vector 128 TaxiNetwork.node[67] visitedPerTimestep ETV
vector 129 TaxiNetwork.node[112] visitedPerTimestep ETV
vector 130 TaxiNetwork.node[78] visitedPerTimestep ETV
vector 131 TaxiNetwork.node[96] visitedPerTimestep ETV
vector 132 TaxiNetwork.node[28] visitedPerTimestep ETV
vector 133 TaxiNetwork.node[23] visitedPerTimestep ETV
vector 134 TaxiNetwork.node[25] visitedPerTimestep ETV
vector 135 TaxiNetwork.node[38] visitedPerTimestep ETV
vector 136 TaxiNetwork.node[108] visitedPerTimestep ETV
vector 137 TaxiNetwork.node[42] visitedPerTimestep ETV
vector 138 TaxiNetwork.node[41] visitedPerTimestep ETV
vector 139 TaxiNetwork.node[109] visitedPerTimestep ETV
vector 140 TaxiNetwork.node[43] visitedPerTimestep ETV
vector 141 TaxiNetwork.node[97] visitedPerTimestep ETV
vector 142 TaxiNetwork.node[81] visitedPerTimestep ETV
vector 143 TaxiNetwork.node[125] visitedPerTimestep ETV
vector 144 TaxiNetwork.node[107] visitedPerTimestep ETV
0	16969 223 1 1846 0 0 19 1 131 2002 241092
1	17192 179 2 2276 0 0 15 2 141 1664 203266
2	17371 173 3 2516 0 0 15 3 142 1495 176963
3	17544 132 4 2472 0 0 11 4 141 1233 155219
4	17676 130 5 2278 0 0 11 5 141 1164 147036
5	17806 116 6 2514 0 0 10 6 142 1067 129633
6	17922 66 7 1684 0 0 6 7 131 521 58179
7	17988 215 8 2002 0 0 18 8 132 1878 221642
8	18203 212 9 2482 0 0 18 9 141 1979 242139
9	18415 303 10 2496 0 0 25 10 141 2863 348555
10	18718 372 11 2306 0 0 28 11 141 3262 407158
11	19090 205 12 2282 0 0 16 12 141 1601 193189
12	19295 220 13 2318 0 0 17 13 141 1891 226465
13	19515 142 14 1590 0 0 11 14 131 1205 148933
14	19657 49 15 902 0 0 4 15 130 336 37478
15	19706 64 16 1674 0 0 5 16 131 486 57562
16	19770 38 17 1670 0 0 3 17 131 276 33834
17	19808 92 18 2258 0 0 7 18 141 798 102412
18	19900 105 19 2468 0 0 8 19 141 935 120363
19	20005 220 20 2474 0 0 17 20 141 1797 214745
20	20225 212 21 2528 0 0 16 21 142 1860 231584
21	20437 209 23 2498 0 0 16 22 141 1777 213861
22	20646 250 24 2372 0 0 19 23 141 2165 262363
23	20896 290 25 2476 0 0 22 24 141 2477 303759
24	21186 279 27 2336 0 0 21 25 141 2508 312252
25	21465 234 28 2248 0 0 18 26 141 1950 232812
26	21699 342 29 2486 0 0 26 27 141 2907 357935
27	22041 200 31 2500 0 0 15 28 141 1767 222445
28	22241 156 32 2522 0 0 12 29 142 1254 151842
29	22397 259 35 2086 0 0 20 30 132 2078 245126
30	22656 264 36 2520 0 0 20 31 142 2297 283813
31	22920 341 46 2526 0 0 26 32 142 2974 363576
32	23261 257 47 2478 0 0 20 33 141 2202 257486
33	23518 207 49 2090 0 0 16 34 132 1793 218367
34	23725 285 50 2322 0 0 22 35 141 2506 300878
35	24010 223 51 2492 0 0 17 36 141 1957 237921
36	24233 170 53 2332 0 0 13 37 141 1479 182781
37	24403 253 54 2386 0 0 19 38 141 2253 279171
38	24656 145 57 2518 0 0 11 39 142 1269 157259
39	24801 234 58 2262 0 0 18 40 141 1989 235833
40	25035 288 59 2294 0 0 22 41 141 2426 289616
41	25323 276 61 2112 0 0 21 42 132 2350 275174
42	25599 180 62 1800 0 0 14 43 131 1476 166754
43	25779 327 64 2506 0 0 25 44 141 2906 356094
44	26106 226 66 2274 0 0 17 45 141 2011 249061
45	26332 210 68 2122 0 0 16 46 132 1867 226601
46	26542 289 72 2460 0 0 22 47 141 2612 318972
47	26831 157 73 2066 0 0 12 48 132 1378 165922
48	26988 369 74 2530 0 0 28 49 142 3378 420174
49	27357 214 75 2298 0 0 16 50 141 1930 239600
50	27571 221 76 2120 0 0 17 51 132 1919 228635
51	27792 92 79 2534 0 0 7 52 142 776 94756
52	27884 209 80 2536 0 0 16 53 142 1844 224058
53	28093 187 81 2422 0 0 14 54 141 1741 223245
54	28280 145 82 2390 0 0 11 55 141 1274 157816
55	28425 79 83 2428 0 0 6 56 141 728 93598
56	28504 228 85 2410 0 0 17 57 141 2084 261142
57	28732 168 86 1992 0 0 13 58 132 1464 171788
58	28900 51 87 2546 0 0 4 59 142 450 54706
59	28951 147 88 2542 0 0 11 60 142 1367 174811
60	29098 328 90 2108 0 0 25 61 132 2905 348591
61	29426 212 94 2316 0 0 16 62 141 1878 228346
62	29638 91 99 2256 0 0 7 63 141 828 102136
63	29729 235 108 1700 0 0 18 64 131 2037 241251
64	29964 214 111 2494 0 0 16 65 141 1924 239038
65	30178 239 118 2502 0 0 18 66 141 2148 264640
66	30417 334 153 2488 0 0 25 67 141 3114 395092
67	30751 174 154 2480 0 0 13 68 141 1579 198533
68	30925 251 155 1944 0 0 19 69 132 2339 291989
69	31176 350 161 2382 0 0 26 70 141 3228 407578
70	31526 292 163 2330 0 0 22 71 141 2712 340124
71	31818 200 164 2544 0 0 15 72 142 1875 239133
72	32018 254 165 2450 0 0 19 73 141 2431 314697
73	32272 162 166 2362 0 0 12 74 141 1485 187309
74	32434 185 168 1964 0 0 14 75 132 1731 217641
75	32619 241 174 2484 0 0 18 76 141 2307 298947
76	32860 53 177 2512 0 0 4 77 142 487 62103
77	32913 133 178 2242 0 0 10 78 141 1219 151579
78	33046 171 183 2056 0 0 13 79 132 1575 195141
79	33217 78 189 1452 0 0 6 80 131 704 84768
80	33295 91 190 1526 0 0 7 81 131 824 99090
81	33386 49 191 768 0 0 4 82 129 386 38678
82	33435 89 192 1440 0 0 7 83 131 778 89642
83	33524 88 193 1446 0 0 7 84 131 696 72012
84	33612 86 194 773 0 0 7 85 129 696 71664
85	33698 37 195 775 0 0 3 86 129 303 31781
86	33735 63 197 1450 0 0 5 87 131 525 57215
87	33798 75 203 774 0 0 6 88 129 655 73867
88	33873 51 209 1444 0 0 4 89 131 439 49823
89	33924 39 210 1448 0 0 3 90 131 350 41902
90	33963 280 221 2490 0 0 21 91 141 2609 328249
91	34243 199 242 1702 0 0 15 92 131 1857 232297
92	34442 200 247 2384 0 0 15 93 141 1846 230500
93	34642 200 250 2524 0 0 15 94 142 1890 240150
94	34842 78 251 1668 0 0 6 95 131 741 92499
95	34920 188 263 1860 0 0 14 96 131 1707 210445
96	35108 280 273 2308 0 0 21 97 141 2606 326350
97	35388 202 285 2346 0 0 15 98 141 1866 234478
98	35590 191 286 2408 0 0 14 99 141 1819 237555
99	35781 189 289 2360 0 0 14 100 141 1757 223199
100	35970 175 292 2444 0 0 12 101 141 1545 200087
101	36145 219 293 2412 0 0 15 102 141 1895 240993
102	36364 230 295 2406 0 0 16 103 141 2002 251624
103	36594 188 325 2292 0 0 13 104 141 1641 208393
104	36782 73 327 2532 0 0 5 105 142 638 82152
105	36855 57 331 2054 0 0 4 106 132 460 53304
106	36912 115 342 1676 0 0 8 107 131 977 120277
107	37027 43 345 2470 0 0 3 108 141 357 43209
108	37070 116 348 2128 0 0 8 109 132 1018 129946
109	37186 248 371 2540 0 0 17 110 142 2205 287027
110	37434 101 388 1458 0 0 7 111 131 865 107365
111	37535 58 406 1456 0 0 4 112 131 493 61027
112	37593 85 408 2050 0 0 6 113 132 749 93889
113	37678 276 431 2264 0 0 19 114 141 2459 319027
114	37954 231 460 2538 0 0 16 115 142 2062 266680
115	38185 292 461 2432 0 0 20 116 141 2604 339626
116	38477 58 463 1728 0 0 4 117 131 502 63126
117	38535 160 466 2454 0 0 11 118 141 1455 193059
118	38695 43 471 1370 0 0 3 119 131 377 47451
119	38738 115 518 2436 0 0 8 120 141 1024 131414
120	38853 146 522 2438 0 0 10 121 141 1295 167991
121	38999 89 530 2446 0 0 6 122 141 808 109112
122	39088 57 537 2404 0 0 4 123 141 522 68294
123	39145 117 547 2434 0 0 8 124 141 1052 138632
124	39262 72 552 2348 0 0 5 125 141 650 84666
125	39334 43 557 2430 0 0 3 126 141 395 52141
126	39377 103 564 2358 0 0 7 127 141 924 122080
127	39480 59 675 1828 0 0 4 128 131 521 67867
128	39539 58 749 2370 0 0 4 129 141 531 70583
129	39597 71 810 1300 0 0 5 130 131 651 84761
130	39668 45 1904 1916 0 0 3 131 132 394 51746
131	39713 15 1914 1914 0 0 1 132 132 132 17424
132	39728 30 2132 2238 0 0 2 133 141 274 37570
133	39758 135 2134 2236 0 0 9 134 141 1247 172829
134	39893 75 2136 2234 0 0 5 135 141 695 96627
135	39968 105 2140 2210 0 0 7 136 140 970 134424
136	40073 90 2142 2194 0 0 6 137 140 834 115932
137	40163 105 2144 2224 0 0 7 138 141 975 135809
138	40268 150 2150 2232 0 0 10 139 141 1398 195446
139	40418 75 2186 2220 0 0 5 140 141 701 98281
140	40493 45 2218 2226 0 0 3 141 141 423 59643
141	40538 15 2510 2510 0 0 1 142 142 142 20164
142	40553 30 2548 2552 0 0 2 143 144 287 41185
143	40583 15 2550 2550 0 0 1 144 144 144 20736
144	40598 15 2554 2554 0 0 1 145 145 145 21025

