file 62458 1756984393                                           
version 3
run General-66-20250904-14:13:13-15311
attr configname General
attr datetime 20250904-14:13:13
attr datetimef 20250904-141313
attr experiment General
attr inifile omnetpp.ini
attr iterationvars ""
attr iterationvarsd ""
attr iterationvarsf ""
attr measurement ""
attr network TaxiNetwork
attr processid 15311
attr repetition 66
attr replication #66
attr resultdir results
attr runnumber 66
attr seedset 66
config network TaxiNetwork
config seed-set 66
config num-rngs 1
config sim-time-limit 10s
config repeat 500
config *.numWalkers 1
config *.enableDuplication true
config *.rc 700
config **.node[0].xCor 2933
config **.node[0].yCor 2747
config **.node[1].xCor 2919
config **.node[1].yCor 2817
config **.node[2].xCor 2910
config **.node[2].yCor 2861
config **.node[3].xCor 2429
config **.node[3].yCor 2851
config **.node[4].xCor 2908
config **.node[4].yCor 2714
config **.node[5].xCor 2606
config **.node[5].yCor 2722
config **.node[6].xCor 2575
config **.node[6].yCor 2753
config **.node[7].xCor 2654
config **.node[7].yCor 2513
config **.node[8].xCor 2773
config **.node[8].yCor 2580
config **.node[9].xCor 3043
config **.node[9].yCor 2780
config **.node[10].xCor 3020
config **.node[10].yCor 2813
config **.node[11].xCor 2599
config **.node[11].yCor 2300
config **.node[12].xCor 2917
config **.node[12].yCor 2698
config **.node[13].xCor 2625
config **.node[13].yCor 2641
config **.node[14].xCor 2604
config **.node[14].yCor 2790
config **.node[15].xCor 2786
config **.node[15].yCor 3082
config **.node[16].xCor 2603
config **.node[16].yCor 2802
config **.node[17].xCor 2637
config **.node[17].yCor 2869
config **.node[18].xCor 2675
config **.node[18].yCor 2955
config **.node[19].xCor 2845
config **.node[19].yCor 2937
config **.node[20].xCor 2860
config **.node[20].yCor 2888
config **.node[21].xCor 2843
config **.node[21].yCor 4158
config **.node[22].xCor 2852
config **.node[22].yCor 4017
config **.node[23].xCor 2892
config **.node[23].yCor 4961
config **.node[24].xCor 2313
config **.node[24].yCor 3993
config **.node[25].xCor 2891
config **.node[25].yCor 4959
config **.node[26].xCor 2370
config **.node[26].yCor 4050
config **.node[27].xCor 2788
config **.node[27].yCor 3958
config **.node[28].xCor 2819
config **.node[28].yCor 4428
config **.node[29].xCor 2790
config **.node[29].yCor 3761
config **.node[30].xCor 2809
config **.node[30].yCor 2908
config **.node[31].xCor 2919
config **.node[31].yCor 3575
config **.node[32].xCor 2946
config **.node[32].yCor 3466
config **.node[33].xCor 2911
config **.node[33].yCor 3453
config **.node[34].xCor 2370
config **.node[34].yCor 3656
config **.node[35].xCor 2438
config **.node[35].yCor 3738
config **.node[36].xCor 2737
config **.node[36].yCor 3570
config **.node[37].xCor 2921
config **.node[37].yCor 3698
config **.node[38].xCor 2907
config **.node[38].yCor 5197
config **.node[39].xCor 2860
config **.node[39].yCor 3852
config **.node[40].xCor 2927
config **.node[40].yCor 3684
config **.node[41].xCor 3023
config **.node[41].yCor 5313
config **.node[42].xCor 3220
config **.node[42].yCor 5811
config **.node[43].xCor 3432
config **.node[43].yCor 5715
config **.node[44].xCor 2754
config **.node[44].yCor 2463
config **.node[45].xCor 2646
config **.node[45].yCor 2673
config **.node[46].xCor 3051
config **.node[46].yCor 2792
config **.node[47].xCor 1666
config **.node[47].yCor 3697
config **.node[48].xCor 1662
config **.node[48].yCor 3694
config **.node[49].xCor 1664
config **.node[49].yCor 3667
config **.node[50].xCor 1660
config **.node[50].yCor 3664
config **.node[51].xCor 1710
config **.node[51].yCor 3573
config **.node[52].xCor 2082
config **.node[52].yCor 2650
config **.node[53].xCor 2086
config **.node[53].yCor 2657
config **.node[54].xCor 2257
config **.node[54].yCor 3232
config **.node[55].xCor 2258
config **.node[55].yCor 3225
config **.node[56].xCor 1926
config **.node[56].yCor 2570
config **.node[57].xCor 1926
config **.node[57].yCor 2576
config **.node[58].xCor 2104
config **.node[58].yCor 1758
config **.node[59].xCor 1957
config **.node[59].yCor 1826
config **.node[60].xCor 3473
config **.node[60].yCor 1523
config **.node[61].xCor 3335
config **.node[61].yCor 1726
config **.node[62].xCor 3478
config **.node[62].yCor 1517
config **.node[63].xCor 3386
config **.node[63].yCor 2119
config **.node[64].xCor 3474
config **.node[64].yCor 1762
config **.node[65].xCor 3797
config **.node[65].yCor 2099
config **.node[66].xCor 3642
config **.node[66].yCor 2136
config **.node[67].xCor 3481
config **.node[67].yCor 2334
config **.node[68].xCor 3088
config **.node[68].yCor 1505
config **.node[69].xCor 3037
config **.node[69].yCor 1693
config **.node[70].xCor 3026
config **.node[70].yCor 1700
config **.node[71].xCor 3019
config **.node[71].yCor 669
config **.node[72].xCor 3513
config **.node[72].yCor 1358
config **.node[73].xCor 3545
config **.node[73].yCor 1230
config **.node[74].xCor 4228
config **.node[74].yCor 4220
config **.node[75].xCor 3379
config **.node[75].yCor 1207
config **.node[76].xCor 3596
config **.node[76].yCor 963
config **.node[77].xCor 3637
config **.node[77].yCor 1188
config **.node[78].xCor 3759
config **.node[78].yCor 1030
config **.node[79].xCor 2918
config **.node[79].yCor 1455
config **.node[80].xCor 2711
config **.node[80].yCor 1297
config **.node[81].xCor 439
config **.node[81].yCor 1623
config **.node[82].xCor 2857
config **.node[82].yCor 3581
config **.node[83].xCor 2858
config **.node[83].yCor 3584
config **.node[84].xCor 2999
config **.node[84].yCor 2636
config **.node[85].xCor 2905
config **.node[85].yCor 2778
config **.node[86].xCor 2653
config **.node[86].yCor 2845
config **.node[87].xCor 2864
config **.node[87].yCor 2836
config **.node[88].xCor 2426
config **.node[88].yCor 2892
config **.node[89].xCor 2964
config **.node[89].yCor 2804
config **.node[90].xCor 2586
config **.node[90].yCor 3135
config **.node[91].xCor 2864
config **.node[91].yCor 2980
config **.node[92].xCor 2527
config **.node[92].yCor 3219
config **.node[93].xCor 2863
config **.node[93].yCor 3142
config **.node[94].xCor 2485
config **.node[94].yCor 3269
config **.node[95].xCor 2653
config **.node[95].yCor 1065
config **.node[96].xCor 4062
config **.node[96].yCor 400
config **.node[97].xCor 5762
config **.node[97].yCor 3023
config **.node[98].xCor 1414
config **.node[98].yCor 3461
config **.node[99].xCor 2911
config **.node[99].yCor 1737
config **.node[100].xCor 2595
config **.node[100].yCor 2299
config **.node[101].xCor 2702
config **.node[101].yCor 3419
config **.node[102].xCor 2813
config **.node[102].yCor 3307
config **.node[103].xCor 2638
config **.node[103].yCor 2258
config **.node[104].xCor 2590
config **.node[104].yCor 3125
config **.node[105].xCor 1856
config **.node[105].yCor 2990
config **.node[106].xCor 1894
config **.node[106].yCor 2239
config **.node[107].xCor 383
config **.node[107].yCor 1251
config **.node[108].xCor 3447
config **.node[108].yCor 5489
config **.node[109].xCor 3450
config **.node[109].yCor 5697
config **.node[110].xCor 2719
config **.node[110].yCor 1920
config **.node[111].xCor 2085
config **.node[111].yCor 2389
config **.node[112].xCor 1910
config **.node[112].yCor 2548
config **.node[113].xCor 2069
config **.node[113].yCor 2050
config **.node[114].xCor 2184
config **.node[114].yCor 2209
config **.node[115].xCor 2278
config **.node[115].yCor 2390
config **.node[116].xCor 2249
config **.node[116].yCor 2299
config **.node[117].xCor 2356
config **.node[117].yCor 2303
config **.node[118].xCor 2192
config **.node[118].yCor 2475
config **.node[119].xCor 1720
config **.node[119].yCor 2911
config **.node[120].xCor 2400
config **.node[120].yCor 2887
config **.node[121].xCor 3344
config **.node[121].yCor 1890
config **.node[122].xCor 3136
config **.node[122].yCor 2418
config **.node[123].xCor 3243
config **.node[123].yCor 2525
config **.node[124].xCor 2396
config **.node[124].yCor 1267
config **.node[125].xCor 467
config **.node[125].yCor 1875
config **.node[126].xCor 3506
config **.node[126].yCor 1221
config **.node[127].xCor 1034
config **.node[127].yCor 1474
config **.node[128].xCor 2908
config **.node[128].yCor 1784
config **.node[129].xCor 2876
config **.node[129].yCor 1761
config **.node[130].xCor 2849
config **.node[130].yCor 1795
config **.node[131].xCor 3029
config **.node[131].yCor 1859
config **.node[132].xCor 2924
config **.node[132].yCor 1848
config **.node[133].xCor 3493
config **.node[133].yCor 1559
config **.node[134].xCor 2760
config **.node[134].yCor 1761
config **.node[135].xCor 1644
config **.node[135].yCor 3755
config **.node[136].xCor 1463
config **.node[136].yCor 3432
config **.node[137].xCor 2595
config **.node[137].yCor 2849
config **.node[138].xCor 2581
config **.node[138].yCor 2867
config **.node[139].xCor 2524
config **.node[139].yCor 2911
config **.node[140].xCor 2570
config **.node[140].yCor 2924
config **.node[141].xCor 2676
config **.node[141].yCor 2890
config **.node[142].xCor 2666
config **.node[142].yCor 2876
config **.node[143].xCor 3735
config **.node[143].yCor 1726
config **.node[144].xCor 1637
config **.node[144].yCor 3438

vector 0 TaxiNetwork.node[30] visitedPerTimestep ETV
vector 1 TaxiNetwork.node[141] visitedPerTimestep ETV
vector 2 TaxiNetwork.node[120] visitedPerTimestep ETV
vector 3 TaxiNetwork.node[140] visitedPerTimestep ETV
vector 4 TaxiNetwork.node[13] visitedPerTimestep ETV
vector 5 TaxiNetwork.node[16] visitedPerTimestep ETV
vector 6 TaxiNetwork.node[54] visitedPerTimestep ETV
vector 7 TaxiNetwork.node[82] visitedPerTimestep ETV
vector 8 TaxiNetwork.node[40] visitedPerTimestep ETV
vector 9 TaxiNetwork.node[34] visitedPerTimestep ETV
vector 10 TaxiNetwork.node[83] visitedPerTimestep ETV
vector 11 TaxiNetwork.node[26] visitedPerTimestep ETV
vector 12 TaxiNetwork.node[101] visitedPerTimestep ETV
vector 13 TaxiNetwork.node[93] visitedPerTimestep ETV
vector 14 TaxiNetwork.node[12] visitedPerTimestep ETV
vector 15 TaxiNetwork.node[104] visitedPerTimestep ETV
vector 16 TaxiNetwork.node[92] visitedPerTimestep ETV
vector 17 TaxiNetwork.node[91] visitedPerTimestep ETV
vector 18 TaxiNetwork.node[10] visitedPerTimestep ETV
vector 19 TaxiNetwork.node[89] visitedPerTimestep ETV
vector 20 TaxiNetwork.node[18] visitedPerTimestep ETV
vector 21 TaxiNetwork.node[19] visitedPerTimestep ETV
vector 22 TaxiNetwork.node[2] visitedPerTimestep ETV
vector 23 TaxiNetwork.node[7] visitedPerTimestep ETV
vector 24 TaxiNetwork.node[90] visitedPerTimestep ETV
vector 25 TaxiNetwork.node[123] visitedPerTimestep ETV
vector 26 TaxiNetwork.node[87] visitedPerTimestep ETV
vector 27 TaxiNetwork.node[139] visitedPerTimestep ETV
vector 28 TaxiNetwork.node[85] visitedPerTimestep ETV
vector 29 TaxiNetwork.node[0] visitedPerTimestep ETV
vector 30 TaxiNetwork.node[17] visitedPerTimestep ETV
vector 31 TaxiNetwork.node[44] visitedPerTimestep ETV
vector 32 TaxiNetwork.node[116] visitedPerTimestep ETV
vector 33 TaxiNetwork.node[137] visitedPerTimestep ETV
vector 34 TaxiNetwork.node[6] visitedPerTimestep ETV
vector 35 TaxiNetwork.node[20] visitedPerTimestep ETV
vector 36 TaxiNetwork.node[88] visitedPerTimestep ETV
vector 37 TaxiNetwork.node[86] visitedPerTimestep ETV
vector 38 TaxiNetwork.node[84] visitedPerTimestep ETV
vector 39 TaxiNetwork.node[33] visitedPerTimestep ETV
vector 40 TaxiNetwork.node[94] visitedPerTimestep ETV
vector 41 TaxiNetwork.node[138] visitedPerTimestep ETV
vector 42 TaxiNetwork.node[37] visitedPerTimestep ETV
vector 43 TaxiNetwork.node[21] visitedPerTimestep ETV
vector 44 TaxiNetwork.node[32] visitedPerTimestep ETV
vector 45 TaxiNetwork.node[11] visitedPerTimestep ETV
vector 46 TaxiNetwork.node[100] visitedPerTimestep ETV
vector 47 TaxiNetwork.node[142] visitedPerTimestep ETV
vector 48 TaxiNetwork.node[55] visitedPerTimestep ETV
vector 49 TaxiNetwork.node[52] visitedPerTimestep ETV
vector 50 TaxiNetwork.node[14] visitedPerTimestep ETV
vector 51 TaxiNetwork.node[3] visitedPerTimestep ETV
vector 52 TaxiNetwork.node[15] visitedPerTimestep ETV
vector 53 TaxiNetwork.node[36] visitedPerTimestep ETV
vector 54 TaxiNetwork.node[102] visitedPerTimestep ETV
vector 55 TaxiNetwork.node[1] visitedPerTimestep ETV
vector 56 TaxiNetwork.node[119] visitedPerTimestep ETV
vector 57 TaxiNetwork.node[112] visitedPerTimestep ETV
vector 58 TaxiNetwork.node[53] visitedPerTimestep ETV
vector 59 TaxiNetwork.node[111] visitedPerTimestep ETV
vector 60 TaxiNetwork.node[113] visitedPerTimestep ETV
vector 61 TaxiNetwork.node[103] visitedPerTimestep ETV
vector 62 TaxiNetwork.node[9] visitedPerTimestep ETV
vector 63 TaxiNetwork.node[118] visitedPerTimestep ETV
vector 64 TaxiNetwork.node[5] visitedPerTimestep ETV
vector 65 TaxiNetwork.node[8] visitedPerTimestep ETV
vector 66 TaxiNetwork.node[114] visitedPerTimestep ETV
vector 67 TaxiNetwork.node[117] visitedPerTimestep ETV
vector 68 TaxiNetwork.node[110] visitedPerTimestep ETV
vector 69 TaxiNetwork.node[69] visitedPerTimestep ETV
vector 70 TaxiNetwork.node[134] visitedPerTimestep ETV
vector 71 TaxiNetwork.node[132] visitedPerTimestep ETV
vector 72 TaxiNetwork.node[99] visitedPerTimestep ETV
vector 73 TaxiNetwork.node[64] visitedPerTimestep ETV
vector 74 TaxiNetwork.node[72] visitedPerTimestep ETV
vector 75 TaxiNetwork.node[126] visitedPerTimestep ETV
vector 76 TaxiNetwork.node[77] visitedPerTimestep ETV
vector 77 TaxiNetwork.node[78] visitedPerTimestep ETV
vector 78 TaxiNetwork.node[75] visitedPerTimestep ETV
vector 79 TaxiNetwork.node[79] visitedPerTimestep ETV
vector 80 TaxiNetwork.node[121] visitedPerTimestep ETV
vector 81 TaxiNetwork.node[70] visitedPerTimestep ETV
vector 82 TaxiNetwork.node[62] visitedPerTimestep ETV
vector 83 TaxiNetwork.node[66] visitedPerTimestep ETV
vector 84 TaxiNetwork.node[131] visitedPerTimestep ETV
vector 85 TaxiNetwork.node[73] visitedPerTimestep ETV
vector 86 TaxiNetwork.node[95] visitedPerTimestep ETV
vector 87 TaxiNetwork.node[80] visitedPerTimestep ETV
vector 88 TaxiNetwork.node[128] visitedPerTimestep ETV
vector 89 TaxiNetwork.node[68] visitedPerTimestep ETV
vector 90 TaxiNetwork.node[133] visitedPerTimestep ETV
vector 91 TaxiNetwork.node[60] visitedPerTimestep ETV
vector 92 TaxiNetwork.node[129] visitedPerTimestep ETV
vector 93 TaxiNetwork.node[4] visitedPerTimestep ETV
vector 94 TaxiNetwork.node[136] visitedPerTimestep ETV
vector 95 TaxiNetwork.node[135] visitedPerTimestep ETV
vector 96 TaxiNetwork.node[98] visitedPerTimestep ETV
vector 97 TaxiNetwork.node[47] visitedPerTimestep ETV
vector 98 TaxiNetwork.node[51] visitedPerTimestep ETV
vector 99 TaxiNetwork.node[48] visitedPerTimestep ETV
vector 100 TaxiNetwork.node[49] visitedPerTimestep ETV
vector 101 TaxiNetwork.node[144] visitedPerTimestep ETV
vector 102 TaxiNetwork.node[105] visitedPerTimestep ETV
vector 103 TaxiNetwork.node[56] visitedPerTimestep ETV
vector 104 TaxiNetwork.node[35] visitedPerTimestep ETV
vector 105 TaxiNetwork.node[46] visitedPerTimestep ETV
vector 106 TaxiNetwork.node[122] visitedPerTimestep ETV
vector 107 TaxiNetwork.node[130] visitedPerTimestep ETV
vector 108 TaxiNetwork.node[63] visitedPerTimestep ETV
vector 109 TaxiNetwork.node[61] visitedPerTimestep ETV
vector 110 TaxiNetwork.node[76] visitedPerTimestep ETV
vector 111 TaxiNetwork.node[71] visitedPerTimestep ETV
vector 112 TaxiNetwork.node[57] visitedPerTimestep ETV
vector 113 TaxiNetwork.node[115] visitedPerTimestep ETV
vector 114 TaxiNetwork.node[45] visitedPerTimestep ETV
vector 115 TaxiNetwork.node[39] visitedPerTimestep ETV
vector 116 TaxiNetwork.node[27] visitedPerTimestep ETV
vector 117 TaxiNetwork.node[31] visitedPerTimestep ETV
vector 118 TaxiNetwork.node[24] visitedPerTimestep ETV
vector 119 TaxiNetwork.node[28] visitedPerTimestep ETV
vector 120 TaxiNetwork.node[58] visitedPerTimestep ETV
vector 121 TaxiNetwork.node[106] visitedPerTimestep ETV
vector 122 TaxiNetwork.node[29] visitedPerTimestep ETV
vector 123 TaxiNetwork.node[22] visitedPerTimestep ETV
vector 124 TaxiNetwork.node[74] visitedPerTimestep ETV
vector 125 TaxiNetwork.node[108] visitedPerTimestep ETV
vector 126 TaxiNetwork.node[41] visitedPerTimestep ETV
vector 127 TaxiNetwork.node[42] visitedPerTimestep ETV
vector 128 TaxiNetwork.node[109] visitedPerTimestep ETV
vector 129 TaxiNetwork.node[38] visitedPerTimestep ETV
vector 130 TaxiNetwork.node[23] visitedPerTimestep ETV
vector 131 TaxiNetwork.node[43] visitedPerTimestep ETV
vector 132 TaxiNetwork.node[25] visitedPerTimestep ETV
vector 133 TaxiNetwork.node[143] visitedPerTimestep ETV
vector 134 TaxiNetwork.node[65] visitedPerTimestep ETV
vector 135 TaxiNetwork.node[124] visitedPerTimestep ETV
vector 136 TaxiNetwork.node[67] visitedPerTimestep ETV
vector 137 TaxiNetwork.node[59] visitedPerTimestep ETV
vector 138 TaxiNetwork.node[50] visitedPerTimestep ETV
vector 139 TaxiNetwork.node[127] visitedPerTimestep ETV
vector 140 TaxiNetwork.node[81] visitedPerTimestep ETV
vector 141 TaxiNetwork.node[96] visitedPerTimestep ETV
0	16802 620 1 9040 0 0 49 1 144 6535 905173
1	17422 610 2 9032 0 0 49 2 144 6352 867084
2	18032 496 3 7008 0 0 39 3 143 5252 731978
3	18528 466 4 9600 0 0 37 4 144 4859 666237
4	18994 548 5 9592 0 0 44 5 144 5647 769053
5	19542 513 6 9456 0 0 41 6 144 5322 735496
6	20055 571 7 9696 0 0 46 7 144 5880 792584
7	20626 306 8 8696 0 0 25 8 144 2967 390827
8	20932 208 9 5876 0 0 17 9 143 2081 284411
9	21140 111 10 9680 0 0 9 10 144 1079 144229
10	21251 343 12 9256 0 0 26 11 144 3174 421958
11	21594 159 13 4944 0 0 12 12 143 1413 185337
12	21753 502 15 8920 0 0 37 13 144 4816 661322
13	22255 827 17 9568 0 0 61 14 144 7858 1063946
14	23082 423 18 9312 0 0 31 15 144 4041 554849
15	23505 613 19 9656 0 0 45 16 144 5930 814002
16	24118 735 20 9704 0 0 54 17 144 6994 955300
17	24853 628 22 8712 0 0 46 18 144 6126 846234
18	25481 471 23 9544 0 0 35 19 144 4396 599468
19	25952 626 24 9392 0 0 46 20 144 6102 834622
20	26578 533 25 9424 0 0 40 21 144 4895 640169
21	27111 426 26 9584 0 0 31 22 144 4179 580501
22	27537 510 27 9368 0 0 37 23 144 5091 714725
23	28047 523 28 8472 0 0 39 24 144 4943 654537
24	28570 639 29 9400 0 0 47 25 144 6171 843515
25	29209 369 34 8080 0 0 27 26 144 3531 486245
26	29578 525 35 9496 0 0 39 27 144 4882 652524
27	30103 629 39 9648 0 0 46 28 144 6185 852085
28	30732 463 40 9112 0 0 34 29 144 4460 608090
29	31195 412 41 9080 0 0 30 30 144 4113 576293
30	31607 665 43 9104 0 0 49 31 144 6387 865145
31	32272 374 44 9488 0 0 28 32 144 3496 462722
32	32646 217 45 9464 0 0 16 33 144 2118 291886
33	32863 625 46 9136 0 0 46 34 144 5992 818678
34	33488 607 47 7896 0 0 45 35 144 5792 775368
35	34095 438 48 9432 0 0 32 36 144 4230 581716
36	34533 684 50 9504 0 0 50 37 144 6691 919297
37	35217 790 53 9512 0 0 58 38 144 7714 1052972
38	36007 406 55 8808 0 0 30 39 144 3981 545245
39	36413 631 57 8968 0 0 46 40 144 6182 849574
40	37044 392 58 9072 0 0 29 41 144 3839 519637
41	37436 510 59 9480 0 0 37 42 144 5058 702766
42	37946 243 63 9408 0 0 18 43 144 2342 314398
43	38189 161 64 9264 0 0 12 44 144 1548 208228
44	38350 473 65 8776 0 0 35 45 144 4544 612854
45	38823 588 68 8480 0 0 43 46 144 5729 782405
46	39411 590 70 9720 0 0 43 47 144 5822 801648
47	40001 476 76 9520 0 0 35 48 144 4636 629666
48	40477 355 77 7448 0 0 26 49 144 3422 466154
49	40832 475 85 9640 0 0 35 50 144 4642 630678
50	41307 423 88 8456 0 0 31 51 144 4055 546187
51	41730 708 89 9712 0 0 52 52 144 6813 919125
52	42438 546 91 9352 0 0 40 53 144 5298 723154
53	42984 306 92 8928 0 0 23 54 144 2880 378394
54	43290 633 98 9376 0 0 46 55 144 6342 883234
55	43923 534 101 9224 0 0 39 56 144 5199 712199
56	44457 93 110 2898 0 0 7 57 143 828 104288
57	44550 215 111 7888 0 0 16 58 144 2019 266777
58	44765 226 112 8672 0 0 17 59 144 2102 271742
59	44991 323 115 8392 0 0 24 60 144 3079 404315
60	45314 163 116 9632 0 0 12 61 144 1543 205359
61	45477 669 117 9608 0 0 49 62 144 6477 875633
62	46146 495 130 8880 0 0 36 63 144 4877 668987
63	46641 378 143 8560 0 0 28 64 144 3571 471425
64	47019 738 148 9552 0 0 54 65 144 7302 1001378
65	47757 592 161 9472 0 0 43 66 144 5897 816443
66	48349 216 172 7880 0 0 16 67 144 2042 266996
67	48565 300 173 7528 0 0 22 68 144 2981 409901
68	48865 232 174 9728 0 0 17 69 144 2277 313133
69	49097 330 175 9616 0 0 24 70 144 3253 449657
70	49427 256 177 8544 0 0 19 71 144 2492 334782
71	49683 215 178 7256 0 0 16 72 143 2028 265716
72	49898 219 179 7312 0 0 16 73 143 2186 303126
73	50117 241 180 8208 0 0 18 74 144 2328 309700
74	50358 203 181 8240 0 0 15 75 144 1964 264572
75	50561 151 182 9768 0 0 11 76 144 1478 203224
76	50712 95 183 7640 0 0 7 77 144 924 125596
77	50807 82 184 9784 0 0 6 78 144 795 108905
78	50889 163 185 9776 0 0 12 79 144 1573 210961
79	51052 227 186 6264 0 0 17 80 143 2147 281247
80	51279 191 187 7248 0 0 14 81 143 1856 250698
81	51470 286 189 8248 0 0 21 82 144 2803 380711
82	51756 261 192 7776 0 0 19 83 144 2579 356253
83	52017 26 193 4360 0 0 2 84 143 227 27505
84	52043 342 195 7736 0 0 25 85 144 3396 467338
85	52385 246 197 7784 0 0 18 86 144 2463 340879
86	52631 67 200 3392 0 0 5 87 143 647 85999
87	52698 160 201 7192 0 0 12 88 143 1537 202773
88	52858 232 203 8488 0 0 17 89 144 2315 318591
89	53090 358 206 8224 0 0 26 90 144 3574 495724
90	53448 205 207 7616 0 0 15 91 144 2042 281110
91	53653 373 209 9752 0 0 27 92 144 3733 520483
92	54026 232 210 8296 0 0 17 93 144 2299 314807
93	54258 522 219 9560 0 0 38 94 144 5222 722478
94	54780 146 231 2896 0 0 11 95 143 1399 182057
95	54926 161 232 2894 0 0 12 96 143 1547 203805
96	55087 133 233 2884 0 0 10 97 143 1291 169379
97	55220 80 235 2880 0 0 6 98 143 763 99425
98	55300 95 236 9672 0 0 7 99 144 925 124099
99	55395 54 238 2664 0 0 4 100 142 522 69372
100	55449 87 241 2878 0 0 6 101 143 778 102358
101	55536 88 242 2882 0 0 6 102 143 806 109554
102	55624 204 245 7832 0 0 14 103 144 1859 249181
103	55828 161 246 6836 0 0 11 104 143 1444 191888
104	55989 381 254 9688 0 0 26 105 144 3516 478248
105	56370 485 261 9216 0 0 33 106 144 4501 617541
106	56855 356 274 9240 0 0 24 107 144 3352 469510
107	57211 296 291 9736 0 0 20 108 144 2747 379859
108	57507 237 292 8352 0 0 16 109 144 2234 313066
109	57744 208 293 9744 0 0 14 110 144 1934 268850
110	57952 102 297 9760 0 0 7 111 144 927 124067
111	58054 44 298 2372 0 0 3 112 142 393 52029
112	58098 206 319 5484 0 0 14 113 143 1937 268805
113	58304 575 337 8992 0 0 39 114 144 5363 740651
114	58879 633 352 8160 0 0 43 115 144 5939 823101
115	59512 130 398 6952 0 0 9 116 143 1198 160136
116	59642 292 439 7960 0 0 20 117 144 2692 364236
117	59934 263 452 9576 0 0 18 118 144 2426 328540
118	60197 189 482 5864 0 0 13 119 143 1753 237549
119	60386 115 483 5616 0 0 8 120 143 1071 143693
120	60501 145 502 8312 0 0 10 121 144 1354 183842
121	60646 131 503 8384 0 0 9 122 144 1218 165266
122	60777 249 545 9272 0 0 17 123 144 2329 319941
123	61026 148 576 6304 0 0 10 124 143 1379 190683
124	61174 89 649 9328 0 0 6 125 144 837 117039
125	61263 42 650 659 0 0 3 126 130 386 49676
126	61305 84 651 676 0 0 6 127 133 785 102733
127	61389 70 652 668 0 0 5 128 132 650 84510
128	61459 42 653 665 0 0 3 129 131 390 50702
129	61501 42 656 662 0 0 3 130 130 390 50700
130	61543 42 663 672 0 0 3 131 133 396 52274
131	61585 14 667 667 0 0 1 132 132 132 17424
132	61599 56 671 677 0 0 4 133 133 532 70756
133	61655 223 838 7672 0 0 15 134 144 2130 302568
134	61878 163 839 7760 0 0 11 135 144 1549 218239
135	62041 118 864 8536 0 0 8 136 144 1132 160262
136	62159 104 877 7088 0 0 7 137 143 995 141463
137	62263 74 886 2508 0 0 5 138 142 696 96894
138	62337 45 2670 2892 0 0 3 143 143 429 61347
139	62382 45 5992 8520 0 0 3 143 144 431 61921
140	62427 15 8512 8512 0 0 1 144 144 144 20736
141	62442 15 9792 9792 0 0 1 145 145 145 21025

