version 3
run General-271-20250904-14:13:19-15654
attr configname General
attr datetime 20250904-14:13:19
attr datetimef 20250904-141319
attr experiment General
attr inifile omnetpp.ini
attr iterationvars ""
attr iterationvarsd ""
attr iterationvarsf ""
attr measurement ""
attr network TaxiNetwork
attr processid 15654
attr repetition 271
attr replication #271
attr resultdir results
attr runnumber 271
attr seedset 271
config network TaxiNetwork
config seed-set 271
config num-rngs 1
config sim-time-limit 10s
config repeat 500
config *.numWalkers 1
config *.enableDuplication true
config *.rc 700
config **.node[0].xCor 2933
config **.node[0].yCor 2747
config **.node[1].xCor 2919
config **.node[1].yCor 2817
config **.node[2].xCor 2910
config **.node[2].yCor 2861
config **.node[3].xCor 2429
config **.node[3].yCor 2851
config **.node[4].xCor 2908
config **.node[4].yCor 2714
config **.node[5].xCor 2606
config **.node[5].yCor 2722
config **.node[6].xCor 2575
config **.node[6].yCor 2753
config **.node[7].xCor 2654
config **.node[7].yCor 2513
config **.node[8].xCor 2773
config **.node[8].yCor 2580
config **.node[9].xCor 3043
config **.node[9].yCor 2780
config **.node[10].xCor 3020
config **.node[10].yCor 2813
config **.node[11].xCor 2599
config **.node[11].yCor 2300
config **.node[12].xCor 2917
config **.node[12].yCor 2698
config **.node[13].xCor 2625
config **.node[13].yCor 2641
config **.node[14].xCor 2604
config **.node[14].yCor 2790
config **.node[15].xCor 2786
config **.node[15].yCor 3082
config **.node[16].xCor 2603
config **.node[16].yCor 2802
config **.node[17].xCor 2637
config **.node[17].yCor 2869
config **.node[18].xCor 2675
config **.node[18].yCor 2955
config **.node[19].xCor 2845
config **.node[19].yCor 2937
config **.node[20].xCor 2860
config **.node[20].yCor 2888
config **.node[21].xCor 2843
config **.node[21].yCor 4158
config **.node[22].xCor 2852
config **.node[22].yCor 4017
config **.node[23].xCor 2892
config **.node[23].yCor 4961
config **.node[24].xCor 2313
config **.node[24].yCor 3993
config **.node[25].xCor 2891
config **.node[25].yCor 4959
config **.node[26].xCor 2370
config **.node[26].yCor 4050
config **.node[27].xCor 2788
config **.node[27].yCor 3958
config **.node[28].xCor 2819
config **.node[28].yCor 4428
config **.node[29].xCor 2790
config **.node[29].yCor 3761
config **.node[30].xCor 2809
config **.node[30].yCor 2908
config **.node[31].xCor 2919
config **.node[31].yCor 3575
config **.node[32].xCor 2946
config **.node[32].yCor 3466
config **.node[33].xCor 2911
config **.node[33].yCor 3453
config **.node[34].xCor 2370
config **.node[34].yCor 3656
config **.node[35].xCor 2438
config **.node[35].yCor 3738
config **.node[36].xCor 2737
config **.node[36].yCor 3570
config **.node[37].xCor 2921
config **.node[37].yCor 3698
config **.node[38].xCor 2907
config **.node[38].yCor 5197
config **.node[39].xCor 2860
config **.node[39].yCor 3852
config **.node[40].xCor 2927
config **.node[40].yCor 3684
config **.node[41].xCor 3023
config **.node[41].yCor 5313
config **.node[42].xCor 3220
config **.node[42].yCor 5811
config **.node[43].xCor 3432
config **.node[43].yCor 5715
config **.node[44].xCor 2754
config **.node[44].yCor 2463
config **.node[45].xCor 2646
config **.node[45].yCor 2673
config **.node[46].xCor 3051
config **.node[46].yCor 2792
config **.node[47].xCor 1666
config **.node[47].yCor 3697
config **.node[48].xCor 1662
config **.node[48].yCor 3694
config **.node[49].xCor 1664
config **.node[49].yCor 3667
config **.node[50].xCor 1660
config **.node[50].yCor 3664
config **.node[51].xCor 1710
config **.node[51].yCor 3573
config **.node[52].xCor 2082
config **.node[52].yCor 2650
config **.node[53].xCor 2086
config **.node[53].yCor 2657
config **.node[54].xCor 2257
config **.node[54].yCor 3232
config **.node[55].xCor 2258
config **.node[55].yCor 3225
config **.node[56].xCor 1926
config **.node[56].yCor 2570
config **.node[57].xCor 1926
config **.node[57].yCor 2576
config **.node[58].xCor 2104
config **.node[58].yCor 1758
config **.node[59].xCor 1957
config **.node[59].yCor 1826
config **.node[60].xCor 3473
config **.node[60].yCor 1523
config **.node[61].xCor 3335
config **.node[61].yCor 1726
config **.node[62].xCor 3478
config **.node[62].yCor 1517
config **.node[63].xCor 3386
config **.node[63].yCor 2119
config **.node[64].xCor 3474
config **.node[64].yCor 1762
config **.node[65].xCor 3797
config **.node[65].yCor 2099
config **.node[66].xCor 3642
config **.node[66].yCor 2136
config **.node[67].xCor 3481
config **.node[67].yCor 2334
config **.node[68].xCor 3088
config **.node[68].yCor 1505
config **.node[69].xCor 3037
config **.node[69].yCor 1693
config **.node[70].xCor 3026
config **.node[70].yCor 1700
config **.node[71].xCor 3019
config **.node[71].yCor 669
config **.node[72].xCor 3513
config **.node[72].yCor 1358
config **.node[73].xCor 3545
config **.node[73].yCor 1230
config **.node[74].xCor 4228
config **.node[74].yCor 4220
config **.node[75].xCor 3379
config **.node[75].yCor 1207
config **.node[76].xCor 3596
config **.node[76].yCor 963
config **.node[77].xCor 3637
config **.node[77].yCor 1188
config **.node[78].xCor 3759
config **.node[78].yCor 1030
config **.node[79].xCor 2918
config **.node[79].yCor 1455
config **.node[80].xCor 2711
config **.node[80].yCor 1297
config **.node[81].xCor 439
config **.node[81].yCor 1623
config **.node[82].xCor 2857
config **.node[82].yCor 3581
config **.node[83].xCor 2858
config **.node[83].yCor 3584
config **.node[84].xCor 2999
config **.node[84].yCor 2636
config **.node[85].xCor 2905
config **.node[85].yCor 2778
config **.node[86].xCor 2653
config **.node[86].yCor 2845
config **.node[87].xCor 2864
config **.node[87].yCor 2836
config **.node[88].xCor 2426
config **.node[88].yCor 2892
config **.node[89].xCor 2964
config **.node[89].yCor 2804
config **.node[90].xCor 2586
config **.node[90].yCor 3135
config **.node[91].xCor 2864
config **.node[91].yCor 2980
config **.node[92].xCor 2527
config **.node[92].yCor 3219
config **.node[93].xCor 2863
config **.node[93].yCor 3142
config **.node[94].xCor 2485
config **.node[94].yCor 3269
config **.node[95].xCor 2653
config **.node[95].yCor 1065
config **.node[96].xCor 4062
config **.node[96].yCor 400
config **.node[97].xCor 5762
config **.node[97].yCor 3023
config **.node[98].xCor 1414
config **.node[98].yCor 3461
config **.node[99].xCor 2911
config **.node[99].yCor 1737
config **.node[100].xCor 2595
config **.node[100].yCor 2299
config **.node[101].xCor 2702
config **.node[101].yCor 3419
config **.node[102].xCor 2813
config **.node[102].yCor 3307
config **.node[103].xCor 2638
config **.node[103].yCor 2258
config **.node[104].xCor 2590
config **.node[104].yCor 3125
config **.node[105].xCor 1856
config **.node[105].yCor 2990
config **.node[106].xCor 1894
config **.node[106].yCor 2239
config **.node[107].xCor 383
config **.node[107].yCor 1251
config **.node[108].xCor 3447
config **.node[108].yCor 5489
config **.node[109].xCor 3450
config **.node[109].yCor 5697
config **.node[110].xCor 2719
config **.node[110].yCor 1920
config **.node[111].xCor 2085
config **.node[111].yCor 2389
config **.node[112].xCor 1910
config **.node[112].yCor 2548
config **.node[113].xCor 2069
config **.node[113].yCor 2050
config **.node[114].xCor 2184
config **.node[114].yCor 2209
config **.node[115].xCor 2278
config **.node[115].yCor 2390
config **.node[116].xCor 2249
config **.node[116].yCor 2299
config **.node[117].xCor 2356
config **.node[117].yCor 2303
config **.node[118].xCor 2192
config **.node[118].yCor 2475
config **.node[119].xCor 1720
config **.node[119].yCor 2911
config **.node[120].xCor 2400
config **.node[120].yCor 2887
config **.node[121].xCor 3344
config **.node[121].yCor 1890
config **.node[122].xCor 3136
config **.node[122].yCor 2418
config **.node[123].xCor 3243
config **.node[123].yCor 2525
config **.node[124].xCor 2396
config **.node[124].yCor 1267
config **.node[125].xCor 467
config **.node[125].yCor 1875
config **.node[126].xCor 3506
config **.node[126].yCor 1221
config **.node[127].xCor 1034
config **.node[127].yCor 1474
config **.node[128].xCor 2908
config **.node[128].yCor 1784
config **.node[129].xCor 2876
config **.node[129].yCor 1761
config **.node[130].xCor 2849
config **.node[130].yCor 1795
config **.node[131].xCor 3029
config **.node[131].yCor 1859
config **.node[132].xCor 2924
config **.node[132].yCor 1848
config **.node[133].xCor 3493
config **.node[133].yCor 1559
config **.node[134].xCor 2760
config **.node[134].yCor 1761
config **.node[135].xCor 1644
config **.node[135].yCor 3755
config **.node[136].xCor 1463
config **.node[136].yCor 3432
config **.node[137].xCor 2595
config **.node[137].yCor 2849
config **.node[138].xCor 2581
config **.node[138].yCor 2867
config **.node[139].xCor 2524
config **.node[139].yCor 2911
config **.node[140].xCor 2570
config **.node[140].yCor 2924
config **.node[141].xCor 2676
config **.node[141].yCor 2890
config **.node[142].xCor 2666
config **.node[142].yCor 2876
config **.node[143].xCor 3735
config **.node[143].yCor 1726
config **.node[144].xCor 1637
config **.node[144].yCor 3438

vector 0 TaxiNetwork.node[115] visitedPerTimestep ETV
vector 1 TaxiNetwork.node[137] visitedPerTimestep ETV
vector 2 TaxiNetwork.node[0] visitedPerTimestep ETV
vector 3 TaxiNetwork.node[10] visitedPerTimestep ETV
vector 4 TaxiNetwork.node[8] visitedPerTimestep ETV
vector 5 TaxiNetwork.node[140] visitedPerTimestep ETV
vector 6 TaxiNetwork.node[4] visitedPerTimestep ETV
vector 7 TaxiNetwork.node[84] visitedPerTimestep ETV
vector 8 TaxiNetwork.node[104] visitedPerTimestep ETV
vector 9 TaxiNetwork.node[52] visitedPerTimestep ETV
vector 10 TaxiNetwork.node[54] visitedPerTimestep ETV
vector 11 TaxiNetwork.node[6] visitedPerTimestep ETV
vector 12 TaxiNetwork.node[7] visitedPerTimestep ETV
vector 13 TaxiNetwork.node[18] visitedPerTimestep ETV
vector 14 TaxiNetwork.node[63] visitedPerTimestep ETV
vector 15 TaxiNetwork.node[45] visitedPerTimestep ETV
vector 16 TaxiNetwork.node[105] visitedPerTimestep ETV
vector 17 TaxiNetwork.node[88] visitedPerTimestep ETV
vector 18 TaxiNetwork.node[139] visitedPerTimestep ETV
vector 19 TaxiNetwork.node[141] visitedPerTimestep ETV
vector 20 TaxiNetwork.node[85] visitedPerTimestep ETV
vector 21 TaxiNetwork.node[101] visitedPerTimestep ETV
vector 22 TaxiNetwork.node[3] visitedPerTimestep ETV
vector 23 TaxiNetwork.node[11] visitedPerTimestep ETV
vector 24 TaxiNetwork.node[20] visitedPerTimestep ETV
vector 25 TaxiNetwork.node[2] visitedPerTimestep ETV
vector 26 TaxiNetwork.node[93] visitedPerTimestep ETV
vector 27 TaxiNetwork.node[5] visitedPerTimestep ETV
vector 28 TaxiNetwork.node[19] visitedPerTimestep ETV
vector 29 TaxiNetwork.node[9] visitedPerTimestep ETV
vector 30 TaxiNetwork.node[14] visitedPerTimestep ETV
vector 31 TaxiNetwork.node[53] visitedPerTimestep ETV
vector 32 TaxiNetwork.node[119] visitedPerTimestep ETV
vector 33 TaxiNetwork.node[112] visitedPerTimestep ETV
vector 34 TaxiNetwork.node[113] visitedPerTimestep ETV
vector 35 TaxiNetwork.node[100] visitedPerTimestep ETV
vector 36 TaxiNetwork.node[91] visitedPerTimestep ETV
vector 37 TaxiNetwork.node[142] visitedPerTimestep ETV
vector 38 TaxiNetwork.node[15] visitedPerTimestep ETV
vector 39 TaxiNetwork.node[13] visitedPerTimestep ETV
vector 40 TaxiNetwork.node[111] visitedPerTimestep ETV
vector 41 TaxiNetwork.node[46] visitedPerTimestep ETV
vector 42 TaxiNetwork.node[12] visitedPerTimestep ETV
vector 43 TaxiNetwork.node[123] visitedPerTimestep ETV
vector 44 TaxiNetwork.node[89] visitedPerTimestep ETV
vector 45 TaxiNetwork.node[138] visitedPerTimestep ETV
vector 46 TaxiNetwork.node[94] visitedPerTimestep ETV
vector 47 TaxiNetwork.node[32] visitedPerTimestep ETV
vector 48 TaxiNetwork.node[22] visitedPerTimestep ETV
vector 49 TaxiNetwork.node[39] visitedPerTimestep ETV
vector 50 TaxiNetwork.node[102] visitedPerTimestep ETV
vector 51 TaxiNetwork.node[1] visitedPerTimestep ETV
vector 52 TaxiNetwork.node[30] visitedPerTimestep ETV
vector 53 TaxiNetwork.node[44] visitedPerTimestep ETV
vector 54 TaxiNetwork.node[114] visitedPerTimestep ETV
vector 55 TaxiNetwork.node[117] visitedPerTimestep ETV
vector 56 TaxiNetwork.node[134] visitedPerTimestep ETV
vector 57 TaxiNetwork.node[58] visitedPerTimestep ETV
vector 58 TaxiNetwork.node[124] visitedPerTimestep ETV
vector 59 TaxiNetwork.node[130] visitedPerTimestep ETV
vector 60 TaxiNetwork.node[110] visitedPerTimestep ETV
vector 61 TaxiNetwork.node[68] visitedPerTimestep ETV
vector 62 TaxiNetwork.node[131] visitedPerTimestep ETV
vector 63 TaxiNetwork.node[64] visitedPerTimestep ETV
vector 64 TaxiNetwork.node[80] visitedPerTimestep ETV
vector 65 TaxiNetwork.node[79] visitedPerTimestep ETV
vector 66 TaxiNetwork.node[73] visitedPerTimestep ETV
vector 67 TaxiNetwork.node[61] visitedPerTimestep ETV
vector 68 TaxiNetwork.node[66] visitedPerTimestep ETV
vector 69 TaxiNetwork.node[143] visitedPerTimestep ETV
vector 70 TaxiNetwork.node[75] visitedPerTimestep ETV
vector 71 TaxiNetwork.node[132] visitedPerTimestep ETV
vector 72 TaxiNetwork.node[99] visitedPerTimestep ETV
vector 73 TaxiNetwork.node[77] visitedPerTimestep ETV
vector 74 TaxiNetwork.node[60] visitedPerTimestep ETV
vector 75 TaxiNetwork.node[65] visitedPerTimestep ETV
vector 76 TaxiNetwork.node[92] visitedPerTimestep ETV
vector 77 TaxiNetwork.node[29] visitedPerTimestep ETV
vector 78 TaxiNetwork.node[27] visitedPerTimestep ETV
vector 79 TaxiNetwork.node[35] visitedPerTimestep ETV
vector 80 TaxiNetwork.node[83] visitedPerTimestep ETV
vector 81 TaxiNetwork.node[37] visitedPerTimestep ETV
vector 82 TaxiNetwork.node[87] visitedPerTimestep ETV
vector 83 TaxiNetwork.node[33] visitedPerTimestep ETV
vector 84 TaxiNetwork.node[26] visitedPerTimestep ETV
vector 85 TaxiNetwork.node[118] visitedPerTimestep ETV
vector 86 TaxiNetwork.node[56] visitedPerTimestep ETV
vector 87 TaxiNetwork.node[55] visitedPerTimestep ETV
vector 88 TaxiNetwork.node[103] visitedPerTimestep ETV
vector 89 TaxiNetwork.node[36] visitedPerTimestep ETV
vector 90 TaxiNetwork.node[24] visitedPerTimestep ETV
vector 91 TaxiNetwork.node[40] visitedPerTimestep ETV
vector 92 TaxiNetwork.node[16] visitedPerTimestep ETV
vector 93 TaxiNetwork.node[122] visitedPerTimestep ETV
vector 94 TaxiNetwork.node[72] visitedPerTimestep ETV
vector 95 TaxiNetwork.node[133] visitedPerTimestep ETV
vector 96 TaxiNetwork.node[70] visitedPerTimestep ETV
vector 97 TaxiNetwork.node[67] visitedPerTimestep ETV
vector 98 TaxiNetwork.node[129] visitedPerTimestep ETV
vector 99 TaxiNetwork.node[121] visitedPerTimestep ETV
vector 100 TaxiNetwork.node[128] visitedPerTimestep ETV
vector 101 TaxiNetwork.node[78] visitedPerTimestep ETV
vector 102 TaxiNetwork.node[126] visitedPerTimestep ETV
vector 103 TaxiNetwork.node[59] visitedPerTimestep ETV
vector 104 TaxiNetwork.node[116] visitedPerTimestep ETV
vector 105 TaxiNetwork.node[86] visitedPerTimestep ETV
vector 106 TaxiNetwork.node[90] visitedPerTimestep ETV
vector 107 TaxiNetwork.node[82] visitedPerTimestep ETV
vector 108 TaxiNetwork.node[120] visitedPerTimestep ETV
vector 109 TaxiNetwork.node[31] visitedPerTimestep ETV
vector 110 TaxiNetwork.node[69] visitedPerTimestep ETV
vector 111 TaxiNetwork.node[17] visitedPerTimestep ETV
vector 112 TaxiNetwork.node[57] visitedPerTimestep ETV
vector 113 TaxiNetwork.node[106] visitedPerTimestep ETV
vector 114 TaxiNetwork.node[34] visitedPerTimestep ETV
vector 115 TaxiNetwork.node[62] visitedPerTimestep ETV
vector 116 TaxiNetwork.node[76] visitedPerTimestep ETV
vector 117 TaxiNetwork.node[144] visitedPerTimestep ETV
vector 118 TaxiNetwork.node[135] visitedPerTimestep ETV
vector 119 TaxiNetwork.node[47] visitedPerTimestep ETV
vector 120 TaxiNetwork.node[98] visitedPerTimestep ETV
vector 121 TaxiNetwork.node[136] visitedPerTimestep ETV
vector 122 TaxiNetwork.node[50] visitedPerTimestep ETV
vector 123 TaxiNetwork.node[21] visitedPerTimestep ETV
vector 124 TaxiNetwork.node[74] visitedPerTimestep ETV
vector 125 TaxiNetwork.node[51] visitedPerTimestep ETV
vector 126 TaxiNetwork.node[127] visitedPerTimestep ETV
vector 127 TaxiNetwork.node[96] visitedPerTimestep ETV
vector 128 TaxiNetwork.node[71] visitedPerTimestep ETV
vector 129 TaxiNetwork.node[28] visitedPerTimestep ETV
vector 130 TaxiNetwork.node[23] visitedPerTimestep ETV
vector 131 TaxiNetwork.node[107] visitedPerTimestep ETV
vector 132 TaxiNetwork.node[125] visitedPerTimestep ETV
vector 133 TaxiNetwork.node[81] visitedPerTimestep ETV
vector 134 TaxiNetwork.node[95] visitedPerTimestep ETV
vector 135 TaxiNetwork.node[48] visitedPerTimestep ETV
vector 136 TaxiNetwork.node[49] visitedPerTimestep ETV
vector 137 TaxiNetwork.node[25] visitedPerTimestep ETV
vector 138 TaxiNetwork.node[38] visitedPerTimestep ETV
0	1	0	1
0	46	0	34
0	136	0	82
0	281	0	106
0	378	0	109
0	441	0	113
0	456	0	114
0	468	0	114
0	571	0	117
0	687	0	125
0	810	0	126
0	1122	0	127
0	1586	0	132
0	1758	0	132
0	1766	0	132
0	1800	0	132
0	1864	0	132
0	1934	0	134
0	2032	0	134
0	2044	0	134
0	2106	0	134
0	2236	0	134
0	2788	0	135
0	4360	0	137
0	4460	0	137
0	5180	0	138
0	5404	0	138
0	6076	0	138
0	6140	0	138
0	7832	0	143
0	7912	0	143
0	8440	0	143
1	2	0	2
1	23	0	19
1	88	0	53
1	154	0	85
1	201	0	93
1	396	0	109
1	734	0	125
1	768	0	125
1	773	0	125
1	792	0	126
1	1112	0	127
1	1630	0	132
1	1642	0	132
1	1646	0	132
1	1714	0	132
1	1750	0	132
1	2036	0	134
1	2148	0	134
1	2450	0	134
1	2458	0	134
1	2462	0	134
1	2638	0	135
1	2980	0	136
1	3128	0	136
1	3412	0	136
1	3448	0	136
1	3488	0	136
1	3604	0	136
1	3612	0	136
1	4280	0	137
1	4316	0	137
1	5304	0	138
1	5524	0	138
1	5996	0	138
1	6756	0	138
1	8480	0	143
2	3	0	3
2	51	0	37
2	138	0	82
2	173	0	89
2	260	0	103
2	350	0	108
2	375	0	109
2	385	0	109
2	618	0	123
2	751	0	125
2	912	0	127
2	944	0	127
2	1000	0	127
2	1060	0	127
2	1254	0	128
2	1334	0	130
2	1426	0	132
2	1458	0	132
2	1710	0	132
2	2004	0	134
2	2436	0	134
2	2448	0	134
2	2476	0	134
2	2744	0	135
2	2918	0	136
2	2968	0	136
2	3024	0	136
2	3152	0	136
2	3440	0	136
2	4448	0	137
2	4908	0	138
2	5004	0	138
2	5012	0	138
2	5752	0	138
2	5916	0	138
2	6704	0	138
2	7008	0	138
2	7032	0	138
3	4	0	4
3	86	0	52
3	152	0	85
3	186	0	89
3	253	0	103
3	285	0	106
3	305	0	107
3	348	0	108
3	462	0	114
3	752	0	125
3	870	0	127
3	1084	0	127
3	1264	0	128
3	1790	0	132
3	2240	0	134
3	2654	0	135
3	2824	0	136
3	2994	0	136
3	3052	0	136
3	3460	0	136
3	3596	0	136
3	4388	0	137
3	5920	0	138
3	6096	0	138
3	6168	0	138
3	7736	0	143
3	8472	0	143
4	5	0	5
4	175	0	89
4	184	0	89
4	279	0	106
4	293	0	107
4	372	0	109
4	621	0	123
4	681	0	125
4	698	0	125
4	733	0	125
4	802	0	126
4	1110	0	127
4	1482	0	132
4	1574	0	132
4	2066	0	134
4	2152	0	134
4	2208	0	134
4	2230	0	134
4	2340	0	134
4	2350	0	134
4	2430	0	134
4	2530	0	134
4	2534	0	134
4	3352	0	136
4	3408	0	136
4	3544	0	136
4	4324	0	137
4	4332	0	137
4	4372	0	137
4	5440	0	138
4	5560	0	138
4	5584	0	138
4	5744	0	138
4	6652	0	138
4	7760	0	143
5	6	0	6
5	76	0	47
5	90	0	53
5	377	0	109
5	387	0	109
5	556	0	117
5	717	0	125
5	720	0	125
5	798	0	126
5	800	0	126
5	890	0	127
5	955	0	127
5	1010	0	127
5	1034	0	127
5	1154	0	127
5	1294	0	130
5	1444	0	132
5	1448	0	132
5	1670	0	132
5	2058	0	134
5	2196	0	134
5	2300	0	134
5	2390	0	134
5	2408	0	134
5	2604	0	135
5	2628	0	135
5	2852	0	136
5	3124	0	136
5	3428	0	136
5	3616	0	136
5	3704	0	136
5	3856	0	136
5	4216	0	137
5	4380	0	137
5	4400	0	137
5	5384	0	138
5	5624	0	138
5	5908	0	138
5	6164	0	138
5	6632	0	138
5	6916	0	138
5	7080	0	138
5	7864	0	143
6	7	0	7
6	38	0	29
6	75	0	47
6	178	0	89
6	360	0	108
6	383	0	109
6	550	0	117
6	561	0	117
6	683	0	125
6	938	0	127
6	1068	0	127
6	1502	0	132
6	2050	0	134
6	2098	0	134
6	2346	0	134
6	2428	0	134
6	2514	0	134
6	2610	0	135
6	2668	0	135
6	2970	0	136
6	3112	0	136
6	3304	0	136
6	3700	0	136
6	3860	0	136
6	4608	0	138
6	4932	0	138
6	4996	0	138
6	5008	0	138
6	5172	0	138
6	5360	0	138
6	5608	0	138
6	5648	0	138
6	5756	0	138
6	6200	0	138
6	7592	0	142
6	8160	0	143
6	8392	0	143
7	8	0	8
7	15	0	14
7	17	0	15
7	40	0	30
7	126	0	76
7	181	0	89
7	382	0	109
7	430	0	111
7	606	0	123
7	623	0	123
7	748	0	125
7	758	0	125
7	771	0	125
7	880	0	127
7	882	0	127
7	939	0	127
7	977	0	127
7	985	0	127
7	1486	0	132
7	1628	0	132
7	1654	0	132
7	1664	0	132
7	1716	0	132
7	2080	0	134
7	2484	0	134
7	3000	0	136
7	3668	0	136
7	4264	0	137
7	4472	0	137
7	4572	0	138
7	4708	0	138
7	4988	0	138
7	5364	0	138
7	5840	0	138
7	6376	0	138
7	6616	0	138
7	7144	0	138
7	7400	0	142
8	9	0	9
8	134	0	82
8	191	0	89
8	392	0	109
8	408	0	110
8	410	0	110
8	495	0	115
8	539	0	117
8	625	0	123
8	633	0	123
8	636	0	123
8	718	0	125
8	760	0	125
8	913	0	127
8	980	0	127
8	1246	0	128
8	1284	0	130
8	1566	0	132
8	1876	0	132
8	1940	0	134
8	2012	0	134
8	2168	0	134
8	2206	0	134
8	2254	0	134
8	2288	0	134
8	2334	0	134
8	2372	0	134
8	2376	0	134
8	2382	0	134
8	2446	0	134
8	2670	0	135
8	2720	0	135
8	2730	0	135
8	2798	0	135
8	2904	0	136
8	2910	0	136
8	3340	0	136
8	3348	0	136
8	4304	0	137
8	4676	0	138
8	5232	0	138
8	5580	0	138
8	5592	0	138
8	6028	0	138
8	6240	0	138
8	6584	0	138
8	6624	0	138
8	6788	0	138
8	7360	0	142
8	7640	0	143
9	10	0	10
9	19	0	16
9	61	0	40
9	93	0	55
9	436	0	112
9	601	0	123
9	669	0	125
9	762	0	125
9	956	0	127
9	997	0	127
9	1268	0	128
9	1408	0	132
9	1478	0	132
9	1508	0	132
9	1978	0	134
9	2042	0	134
9	2126	0	134
9	2188	0	134
9	2326	0	134
9	2398	0	134
9	2496	0	134
9	2582	0	135
9	2648	0	135
9	3312	0	136
9	3328	0	136
9	4232	0	137
9	4312	0	137
9	5480	0	138
9	5512	0	138
9	6148	0	138
9	6220	0	138
9	6244	0	138
9	6660	0	138
10	11	0	11
10	192	0	89
10	409	0	110
10	578	0	117
10	855	0	127
10	864	0	127
10	889	0	127
10	909	0	127
10	1026	0	127
10	1400	0	132
10	1410	0	132
10	1594	0	132
10	1704	0	132
10	2316	0	134
10	2578	0	135
10	2606	0	135
10	2716	0	135
10	2962	0	136
10	2984	0	136
10	3588	0	136
10	4600	0	138
10	4620	0	138
10	4732	0	138
10	5116	0	138
10	5268	0	138
10	5500	0	138
10	6064	0	138
10	6636	0	138
10	6984	0	138
10	8224	0	143
11	12	0	12
11	25	0	20
11	45	0	34
11	288	0	106
11	343	0	107
11	365	0	108
11	451	0	113
11	465	0	114
11	551	0	117
11	709	0	125
11	1064	0	127
11	1464	0	132
11	1548	0	132
11	1602	0	132
11	1786	0	132
11	1992	0	134
11	2038	0	134
11	2216	0	134
11	2400	0	134
11	2940	0	136
11	3056	0	136
11	3064	0	136
11	3160	0	136
11	3284	0	136
11	4248	0	137
11	4352	0	137
11	4564	0	138
11	4972	0	138
11	5312	0	138
11	5396	0	138
11	6000	0	138
11	6088	0	138
11	6172	0	138
11	6380	0	138
12	13	0	13
12	26	0	20
12	59	0	39
12	72	0	45
12	168	0	89
12	252	0	103
12	532	0	117
12	545	0	117
12	795	0	126
12	883	0	127
12	1092	0	127
12	1262	0	128
12	1428	0	132
12	1554	0	132
12	1746	0	132
12	1760	0	132
12	1984	0	134
12	2076	0	134
12	2396	0	134
12	2490	0	134
12	2646	0	135
12	2862	0	136
12	3576	0	136
12	3736	0	136
12	3872	0	136
12	4228	0	137
12	4872	0	138
12	4900	0	138
12	4948	0	138
12	4964	0	138
12	5140	0	138
12	5176	0	138
12	5572	0	138
12	5972	0	138
12	6192	0	138
12	6560	0	138
12	7920	0	143
12	8048	0	143
12	8144	0	143
12	8208	0	143
13	14	0	14
13	56	0	39
13	127	0	76
13	135	0	82
13	244	0	103
13	251	0	103
13	284	0	106
13	353	0	108
13	384	0	109
13	403	0	109
13	535	0	117
13	664	0	125
13	724	0	125
13	730	0	125
13	756	0	125
13	759	0	125
13	779	0	125
13	862	0	127
13	958	0	127
13	1058	0	127
13	1114	0	127
13	1468	0	132
13	1624	0	132
13	1756	0	132
13	2226	0	134
13	2342	0	134
13	2588	0	135
13	2662	0	135
13	2768	0	135
13	2800	0	135
13	2804	0	135
13	2902	0	136
13	2908	0	136
13	2912	0	136
13	2966	0	136
13	3060	0	136
13	3436	0	136
13	4696	0	138
13	5104	0	138
13	5200	0	138
13	5392	0	138
13	5844	0	138
13	5860	0	138
13	6024	0	138
13	6160	0	138
13	6228	0	138
13	6956	0	138
13	6992	0	138
13	7128	0	138
13	8272	0	143
13	8376	0	143
13	8448	0	143
14	16	0	15
14	100	0	61
14	123	0	76
14	125	0	76
14	213	0	97
14	235	0	103
14	429	0	111
14	509	0	115
14	893	0	127
14	898	0	127
14	1222	0	128
14	1544	0	132
14	1918	0	134
14	3988	0	136
14	4044	0	137
14	4068	0	137
14	5424	0	138
14	6400	0	138
15	18	0	16
15	185	0	89
15	374	0	109
15	457	0	114
15	570	0	117
15	575	0	117
15	603	0	123
15	699	0	125
15	770	0	125
15	811	0	126
15	965	0	127
15	979	0	127
15	987	0	127
15	1124	0	127
15	1398	0	132
15	1402	0	132
15	1480	0	132
15	1504	0	132
15	1614	0	132
15	1622	0	132
15	1754	0	132
15	1898	0	134
15	1904	0	134
15	1956	0	134
15	2002	0	134
15	2158	0	134
15	2234	0	134
15	2306	0	134
15	2356	0	134
15	2560	0	135
15	2590	0	135
15	2624	0	135
15	2748	0	135
15	3372	0	136
15	3392	0	136
15	3444	0	136
15	5368	0	138
15	5964	0	138
15	6072	0	138
15	7016	0	138
15	7368	0	142
15	7600	0	142
15	7768	0	143
15	7824	0	143
15	8240	0	143
16	20	0	17
16	156	0	85
16	161	0	87
16	616	0	123
16	790	0	126
16	972	0	127
16	1590	0	132
16	2932	0	136
16	3660	0	136
16	5484	0	138
16	6248	0	138
16	6972	0	138
16	6980	0	138
17	21	0	18
17	164	0	88
17	167	0	89
17	263	0	103
17	273	0	104
17	300	0	107
17	395	0	109
17	434	0	112
17	498	0	115
17	542	0	117
17	572	0	117
17	574	0	117
17	617	0	123
17	668	0	125
17	685	0	125
17	858	0	127
17	869	0	127
17	1030	0	127
17	1316	0	130
17	1424	0	132
17	1460	0	132
17	1606	0	132
17	1798	0	132
17	2082	0	134
17	2160	0	134
17	2252	0	134
17	2260	0	134
17	2402	0	134
17	2528	0	134
17	2936	0	136
17	3308	0	136
17	3656	0	136
17	4276	0	137
17	4288	0	137
17	4604	0	138
17	5188	0	138
17	5228	0	138
17	5352	0	138
17	5456	0	138
17	5656	0	138
17	5872	0	138
17	5980	0	138
17	6180	0	138
17	6688	0	138
17	6716	0	138
17	6908	0	138
17	8032	0	143
17	8464	0	143
18	22	0	19
18	84	0	52
18	256	0	103
18	268	0	103
18	449	0	113
18	677	0	125
18	706	0	125
18	729	0	125
18	848	0	127
18	946	0	127
18	1062	0	127
18	1496	0	132
18	1858	0	132
18	1936	0	134
18	2412	0	134
18	2482	0	134
18	2592	0	135
18	2712	0	135
18	2786	0	135
18	3404	0	136
18	3456	0	136
18	3724	0	136
18	3732	0	136
18	4364	0	137
18	4444	0	137
18	5128	0	138
18	5184	0	138
18	5400	0	138
18	5896	0	138
18	6036	0	138
18	6596	0	138
18	7344	0	142
18	7496	0	142
18	7688	0	143
18	7840	0	143
18	7896	0	143
19	24	0	20
19	53	0	38
19	62	0	40
19	137	0	82
19	282	0	106
19	303	0	107
19	349	0	108
19	380	0	109
19	458	0	114
19	559	0	117
19	753	0	125
19	908	0	127
19	941	0	127
19	1070	0	127
19	1280	0	129
19	1612	0	132
19	1694	0	132
19	1796	0	132
19	1844	0	132
19	1990	0	134
19	2074	0	134
19	2104	0	134
19	2338	0	134
19	2758	0	135
19	2790	0	135
19	3288	0	136
19	3580	0	136
19	3680	0	136
19	4416	0	137
19	4904	0	138
19	4960	0	138
19	5056	0	138
19	5084	0	138
19	5516	0	138
19	5832	0	138
19	6068	0	138
19	6100	0	138
19	6196	0	138
19	6592	0	138
19	7000	0	138
19	7752	0	143
19	8200	0	143
19	8400	0	143
20	27	0	21
20	34	0	27
20	151	0	85
20	203	0	93
20	264	0	103
20	287	0	106
20	290	0	106
20	297	0	107
20	399	0	109
20	402	0	109
20	757	0	125
20	868	0	127
20	949	0	127
20	1126	0	127
20	1146	0	127
20	1560	0	132
20	1568	0	132
20	1846	0	132
20	1966	0	134
20	2198	0	134
20	2222	0	134
20	2298	0	134
20	2392	0	134
20	2538	0	134
20	2612	0	135
20	2834	0	136
20	3044	0	136
20	3344	0	136
20	3620	0	136
20	3652	0	136
20	3864	0	136
20	4348	0	137
20	5160	0	138
20	5568	0	138
20	5612	0	138
20	5768	0	138
20	6184	0	138
20	6724	0	138
20	6744	0	138
20	6928	0	138
20	6996	0	138
20	7048	0	138
20	7384	0	142
21	28	0	22
21	540	0	117
21	587	0	117
21	613	0	123
21	628	0	123
21	639	0	123
21	662	0	125
21	927	0	127
21	963	0	127
21	1086	0	127
21	1138	0	127
21	1330	0	130
21	1740	0	132
21	1818	0	132
21	1824	0	132
21	2010	0	134
21	2262	0	134
21	2330	0	134
21	2364	0	134
21	2602	0	135
21	2674	0	135
21	2694	0	135
21	2830	0	136
21	4292	0	137
21	4392	0	137
21	4516	0	137
21	4560	0	138
21	5100	0	138
21	5596	0	138
21	5800	0	138
21	6040	0	138
21	6120	0	138
21	6760	0	138
21	7256	0	142
21	7512	0	142
22	29	0	23
22	85	0	52
22	163	0	88
22	176	0	89
22	379	0	109
22	386	0	109
22	432	0	112
22	543	0	117
22	602	0	123
22	747	0	125
22	765	0	125
22	776	0	125
22	780	0	125
22	881	0	127
22	991	0	127
22	1272	0	128
22	1578	0	132
22	2078	0	134
22	2102	0	134
22	2344	0	134
22	2516	0	134
22	2756	0	135
22	2930	0	136
22	3108	0	136
22	3396	0	136
22	3664	0	136
22	4612	0	138
22	4672	0	138
22	5296	0	138
22	5356	0	138
22	5548	0	138
22	5604	0	138
22	5640	0	138
22	7056	0	138
22	7240	0	142
22	7504	0	142
22	7608	0	142
22	8008	0	143
23	30	0	24
23	35	0	27
23	165	0	88
23	174	0	89
23	266	0	103
23	274	0	104
23	605	0	123
23	620	0	123
23	782	0	125
23	957	0	127
23	983	0	127
23	1002	0	127
23	1278	0	128
23	1518	0	132
23	1636	0	132
23	1848	0	132
23	1900	0	134
23	1994	0	134
23	1998	0	134
23	2120	0	134
23	2128	0	134
23	2512	0	134
23	2586	0	135
23	2664	0	135
23	2770	0	135
23	2874	0	136
23	2926	0	136
23	3292	0	136
23	3492	0	136
23	3672	0	136
23	3848	0	136
23	4740	0	138
23	4888	0	138
23	4952	0	138
23	5332	0	138
23	5992	0	138
23	6204	0	138
23	6556	0	138
23	6676	0	138
23	6732	0	138
23	7168	0	138
23	8152	0	143
24	31	0	25
24	415	0	110
24	446	0	113
24	553	0	117
24	611	0	123
24	674	0	125
24	680	0	125
24	722	0	125
24	731	0	125
24	853	0	127
24	885	0	127
24	1024	0	127
24	1052	0	127
24	1066	0	127
24	1088	0	127
24	1778	0	132
24	2318	0	134
24	2644	0	135
24	2726	0	135
24	2838	0	136
24	3296	0	136
24	5072	0	138
24	5108	0	138
24	5264	0	138
24	5776	0	138
24	5788	0	138
24	5804	0	138
24	6092	0	138
24	6564	0	138
24	6736	0	138
24	6932	0	138
24	7160	0	138
24	7720	0	143
25	32	0	26
25	169	0	89
25	177	0	89
25	361	0	108
25	376	0	109
25	496	0	115
25	576	0	117
25	696	0	125
25	719	0	125
25	726	0	125
25	978	0	127
25	1020	0	127
25	1050	0	127
25	1096	0	127
25	1240	0	128
25	1558	0	132
25	1648	0	132
25	1902	0	134
25	2302	0	134
25	2472	0	134
25	2860	0	136
25	2972	0	136
25	3032	0	136
25	3852	0	136
25	4260	0	137
25	4340	0	137
25	4660	0	138
25	4992	0	138
25	5616	0	138
25	5812	0	138
25	5904	0	138
25	6684	0	138
25	6720	0	138
25	7880	0	143
25	8024	0	143
25	8176	0	143
26	33	0	27
26	153	0	85
26	187	0	89
26	247	0	103
26	294	0	107
26	450	0	113
26	473	0	114
26	476	0	114
26	577	0	117
26	630	0	123
26	715	0	125
26	1286	0	130
26	1418	0	132
26	1572	0	132
26	1626	0	132
26	2054	0	134
26	2162	0	134
26	2170	0	134
26	2224	0	134
26	2282	0	134
26	2974	0	136
26	2998	0	136
26	3036	0	136
26	4212	0	137
26	4296	0	137
26	4636	0	138
26	4688	0	138
26	5448	0	138
26	5924	0	138
26	6108	0	138
26	6232	0	138
26	6628	0	138
26	6712	0	138
26	6900	0	138
26	7024	0	138
26	7096	0	138
26	7744	0	143
26	8232	0	143
26	8408	0	143
27	36	0	28
27	66	0	41
27	170	0	89
27	259	0	103
27	562	0	117
27	632	0	123
27	672	0	125
27	735	0	125
27	884	0	127
27	1018	0	127
27	1118	0	127
27	1282	0	130
27	1512	0	132
27	1610	0	132
27	1656	0	132
27	1682	0	132
27	1836	0	132
27	1938	0	134
27	2110	0	134
27	2200	0	134
27	2464	0	134
27	2540	0	134
27	2544	0	134
27	2780	0	135
27	2876	0	136
27	3028	0	136
27	3504	0	136
27	4668	0	138
27	4984	0	138
27	5060	0	138
27	5644	0	138
27	5988	0	138
27	6136	0	138
27	6612	0	138
27	7392	0	142
27	7568	0	142
28	37	0	29
28	69	0	43
28	338	0	107
28	358	0	108
28	447	0	113
28	541	0	117
28	624	0	123
28	667	0	125
28	723	0	125
28	808	0	126
28	860	0	127
28	992	0	127
28	1090	0	127
28	1248	0	128
28	1430	0	132
28	1678	0	132
28	1782	0	132
28	1832	0	132
28	1894	0	134
28	2294	0	134
28	2982	0	136
28	3360	0	136
28	3388	0	136
28	3468	0	136
28	3696	0	136
28	4272	0	137
28	4556	0	138
28	4616	0	138
28	5468	0	138
28	6236	0	138
28	6784	0	138
28	7440	0	142
28	7456	0	142
28	8416	0	143
29	39	0	30
29	49	0	36
29	223	0	101
29	248	0	103
29	250	0	103
29	401	0	109
29	464	0	114
29	665	0	125
29	867	0	127
29	1006	0	127
29	1082	0	127
29	1116	0	127
29	1660	0	132
29	1698	0	132
29	1748	0	132
29	1780	0	132
29	1996	0	134
29	2228	0	134
29	2246	0	134
29	2598	0	135
29	2710	0	135
29	2836	0	136
29	2990	0	136
29	3040	0	136
29	3336	0	136
29	3424	0	136
29	3452	0	136
29	5528	0	138
29	6752	0	138
29	7200	0	139
30	41	0	31
30	55	0	39
30	368	0	109
30	534	0	117
30	564	0	117
30	608	0	123
30	712	0	125
30	796	0	126
30	804	0	126
30	950	0	127
30	1266	0	128
30	1302	0	130
30	1310	0	130
30	1412	0	132
30	1466	0	132
30	1570	0	132
30	1596	0	132
30	1690	0	132
30	1856	0	132
30	1980	0	134
30	2008	0	134
30	2468	0	134
30	2536	0	134
30	2562	0	135
30	2728	0	135
30	2784	0	135
30	2856	0	136
30	2928	0	136
30	3560	0	136
30	3624	0	136
30	4344	0	137
30	4480	0	137
30	4624	0	138
30	5276	0	138
30	5372	0	138
30	5836	0	138
30	5880	0	138
30	5888	0	138
30	5912	0	138
30	5928	0	138
30	6116	0	138
30	6504	0	138
30	6656	0	138
30	6896	0	138
30	7664	0	143
30	8000	0	143
30	8424	0	143
31	42	0	32
31	63	0	40
31	255	0	103
31	435	0	112
31	438	0	113
31	533	0	117
31	569	0	117
31	846	0	127
31	863	0	127
31	942	0	127
31	969	0	127
31	971	0	127
31	1616	0	132
31	1706	0	132
31	1842	0	132
31	2064	0	134
31	2204	0	134
31	2406	0	134
31	2494	0	134
31	2546	0	134
31	2776	0	135
31	3400	0	136
31	3584	0	136
31	3712	0	136
31	3720	0	136
31	5292	0	138
31	5496	0	138
31	5932	0	138
31	6080	0	138
31	6496	0	138
31	6600	0	138
31	6668	0	138
31	6696	0	138
31	7560	0	142
31	8216	0	143
32	43	0	33
32	64	0	40
32	160	0	87
32	596	0	123
32	786	0	125
32	2178	0	134
32	2570	0	135
32	2576	0	135
32	2880	0	136
32	2884	0	136
32	2898	0	136
32	4236	0	137
32	5504	0	138
32	5936	0	138
32	6664	0	138
32	6964	0	138
33	44	0	34
33	440	0	113
33	597	0	123
33	686	0	125
33	692	0	125
33	784	0	125
33	2182	0	134
33	2520	0	134
33	2566	0	135
33	5940	0	138
33	6084	0	138
34	47	0	35
34	158	0	86
34	270	0	103
34	439	0	113
34	693	0	125
34	968	0	127
34	1520	0	132
34	1764	0	132
34	1862	0	132
34	2510	0	134
34	2548	0	135
34	2552	0	135
34	3168	0	136
34	3316	0	136
35	48	0	36
35	258	0	103
35	262	0	103
35	500	0	115
35	814	0	126
35	845	0	127
35	896	0	127
35	976	0	127
35	982	0	127
35	1300	0	130
35	1314	0	130
35	1396	0	131
35	1650	0	132
35	1662	0	132
35	1788	0	132
35	1838	0	132
35	1896	0	134
35	1932	0	134
35	1970	0	134
35	1974	0	134
35	2046	0	134
35	2070	0	134
35	2156	0	134
35	2266	0	134
35	2474	0	134
35	2498	0	134
35	2506	0	134
35	2584	0	135
35	2870	0	136
35	3116	0	136
35	3144	0	136
35	3356	0	136
35	3840	0	136
35	4412	0	137
35	4880	0	138
35	5136	0	138
35	6672	0	138
35	6748	0	138
35	7064	0	138
35	7800	0	143
35	7872	0	143
35	8064	0	143
36	50	0	37
36	57	0	39
36	150	0	85
36	180	0	89
36	183	0	89
36	249	0	103
36	298	0	107
36	306	0	107
36	357	0	108
36	411	0	110
36	547	0	117
36	708	0	125
36	861	0	127
36	866	0	127
36	886	0	127
36	1404	0	132
36	1730	0	132
36	1736	0	132
36	1792	0	132
36	1988	0	134
36	2312	0	134
36	2332	0	134
36	2438	0	134
36	2636	0	135
36	2676	0	135
36	2722	0	135
36	3416	0	136
36	4368	0	137
36	4376	0	137
36	4528	0	137
36	4664	0	138
36	4916	0	138
36	5472	0	138
36	5900	0	138
36	6056	0	138
36	6588	0	138
36	6608	0	138
36	6888	0	138
36	6940	0	138
36	7232	0	142
36	7624	0	142
36	7856	0	143
37	52	0	38
37	58	0	39
37	242	0	103
37	254	0	103
37	666	0	125
37	809	0	126
37	847	0	127
37	970	0	127
37	988	0	127
37	995	0	127
37	999	0	127
37	1012	0	127
37	1016	0	127
37	1256	0	128
37	1332	0	130
37	1406	0	132
37	1416	0	132
37	1484	0	132
37	1700	0	132
37	1738	0	132
37	1852	0	132
37	1892	0	134
37	2124	0	134
37	2580	0	135
37	2622	0	135
37	2660	0	135
37	2734	0	135
37	2938	0	136
37	3688	0	136
37	4544	0	138
37	4684	0	138
37	5112	0	138
37	5120	0	138
37	5576	0	138
37	5632	0	138
37	5664	0	138
37	5984	0	138
37	7784	0	143
37	8184	0	143
38	54	0	39
38	179	0	89
38	370	0	109
38	398	0	109
38	631	0	123
38	713	0	125
38	721	0	125
38	725	0	125
38	928	0	127
38	1080	0	127
38	1488	0	132
38	1872	0	132
38	2620	0	135
38	2736	0	135
38	2906	0	136
38	2986	0	136
38	4484	0	137
38	4704	0	138
38	4716	0	138
38	5272	0	138
38	6372	0	138
38	6640	0	138
38	8488	0	143
39	60	0	40
39	566	0	117
39	604	0	123
39	689	0	125
39	695	0	125
39	700	0	125
39	767	0	125
39	781	0	125
39	1250	0	128
39	1270	0	128
39	1308	0	130
39	1476	0	132
39	1556	0	132
39	1638	0	132
39	1644	0	132
39	1728	0	132
39	1828	0	132
39	1868	0	132
39	2218	0	134
39	2276	0	134
39	2314	0	134
39	2336	0	134
39	2370	0	134
39	2614	0	135
39	2642	0	135
39	3472	0	136
39	3540	0	136
39	4568	0	138
39	4876	0	138
39	5284	0	138
39	5652	0	138
39	5668	0	138
39	6728	0	138
39	6924	0	138
39	7848	0	143
39	7888	0	143
40	65	0	41
40	155	0	85
40	171	0	89
40	563	0	117
40	615	0	123
40	774	0	125
40	783	0	125
40	1306	0	130
40	1506	0	132
40	1866	0	132
40	2212	0	134
40	2568	0	135
40	2934	0	136
40	3644	0	136
40	4244	0	137
40	4924	0	138
40	5132	0	138
40	5408	0	138
40	5492	0	138
40	5672	0	138
40	6144	0	138
40	7904	0	143
41	67	0	42
41	139	0	82
41	145	0	83
41	241	0	103
41	304	0	107
41	373	0	109
41	381	0	109
41	678	0	125
41	702	0	125
41	754	0	125
41	1434	0	132
41	1462	0	132
41	1732	0	132
41	1850	0	132
41	2052	0	134
41	2220	0	134
41	2422	0	134
41	2444	0	134
41	2634	0	135
41	2858	0	136
41	2914	0	136
41	3368	0	136
41	3420	0	136
41	3628	0	136
41	4440	0	137
41	4548	0	138
41	4692	0	138
41	4936	0	138
41	5300	0	138
41	5544	0	138
41	5636	0	138
41	7072	0	138
41	7424	0	142
42	68	0	43
42	190	0	89
42	339	0	107
42	352	0	108
42	367	0	109
42	371	0	109
42	727	0	125
42	750	0	125
42	859	0	127
42	984	0	127
42	1008	0	127
42	1258	0	128
42	1274	0	128
42	1972	0	134
42	2250	0	134
42	2452	0	134
42	2996	0	136
42	3020	0	136
42	3048	0	136
42	3464	0	136
42	3480	0	136
42	3572	0	136
42	4268	0	137
42	4656	0	138
42	4944	0	138
42	5088	0	138
42	5216	0	138
42	5816	0	138
42	6188	0	138
42	6680	0	138
42	6892	0	138
42	7352	0	142
43	70	0	44
43	141	0	82
43	239	0	103
43	337	0	107
43	501	0	115
43	529	0	117
43	737	0	125
43	940	0	127
43	1022	0	127
43	1098	0	127
43	1516	0	132
43	1552	0	132
43	1744	0	132
43	1834	0	132
43	1968	0	134
43	2000	0	134
43	2086	0	134
43	2112	0	134
43	2244	0	134
43	2466	0	134
43	2470	0	134
43	2656	0	135
43	2752	0	135
43	3536	0	136
43	3740	0	136
43	4204	0	137
43	4532	0	138
43	5212	0	138
43	5336	0	138
43	5432	0	138
43	5536	0	138
43	7040	0	138
43	8192	0	143
44	71	0	45
44	83	0	52
44	89	0	53
44	257	0	103
44	265	0	103
44	359	0	108
44	400	0	109
44	448	0	113
44	497	0	115
44	619	0	123
44	764	0	125
44	937	0	127
44	1004	0	127
44	1108	0	127
44	1498	0	132
44	1826	0	132
44	1986	0	134
44	2150	0	134
44	2232	0	134
44	2374	0	134
44	2596	0	135
44	2616	0	135
44	2740	0	135
44	2750	0	135
44	3004	0	136
44	3016	0	136
44	3300	0	136
44	3432	0	136
44	3556	0	136
44	3600	0	136
44	4224	0	137
44	5096	0	138
44	5444	0	138
44	5620	0	138
44	5884	0	138
44	5968	0	138
44	7416	0	142
44	8168	0	143
45	73	0	46
45	143	0	83
45	172	0	89
45	199	0	92
45	202	0	93
45	286	0	106
45	295	0	107
45	299	0	107
45	461	0	114
45	807	0	126
45	852	0	127
45	1238	0	128
45	1296	0	130
45	1422	0	132
45	1456	0	132
45	1632	0	132
45	1686	0	132
45	1696	0	132
45	1734	0	132
45	1802	0	132
45	1976	0	134
45	2488	0	134
45	2652	0	135
45	2916	0	136
45	2988	0	136
45	3148	0	136
45	4632	0	138
45	4712	0	138
45	4956	0	138
45	5092	0	138
45	5220	0	138
45	5328	0	138
45	6016	0	138
45	6152	0	138
45	6648	0	138
45	7224	0	142
45	7792	0	143
46	74	0	47
46	198	0	92
46	291	0	106
46	393	0	109
46	471	0	114
46	704	0	125
46	710	0	125
46	777	0	125
46	964	0	127
46	993	0	127
46	1036	0	127
46	1072	0	127
46	1152	0	127
46	1490	0	132
46	1598	0	132
46	1604	0	132
46	1702	0	132
46	1794	0	132
46	1954	0	134
46	2014	0	134
46	2144	0	134
46	2296	0	134
46	2320	0	134
46	2434	0	134
46	2608	0	135
46	2746	0	135
46	3508	0	136
46	3524	0	136
46	3564	0	136
46	4420	0	137
46	4728	0	138
46	5124	0	138
46	5168	0	138
46	5316	0	138
46	5792	0	138
46	6740	0	138
46	6832	0	138
46	6880	0	138
46	6944	0	138
46	7248	0	142
46	8016	0	143
46	8256	0	143
47	77	0	48
47	80	0	50
47	243	0	103
47	245	0	103
47	347	0	108
47	390	0	109
47	484	0	114
47	487	0	115
47	663	0	125
47	679	0	125
47	739	0	125
47	936	0	127
47	962	0	127
47	2016	0	134
47	2166	0	134
47	2194	0	134
47	2416	0	134
47	2680	0	135
47	2700	0	135
47	2708	0	135
47	2818	0	136
47	3080	0	136
47	4220	0	137
47	5256	0	138
47	5764	0	138
47	5824	0	138
47	6104	0	138
47	6364	0	138
47	6952	0	138
47	7296	0	142
47	7448	0	142
48	78	0	49
48	405	0	110
48	483	0	114
48	585	0	117
48	1076	0	127
48	1808	0	132
48	2810	0	136
48	2844	0	136
48	2848	0	136
48	6848	0	138
48	7472	0	142
48	8504	0	143
49	79	0	50
49	493	0	115
49	741	0	125
49	743	0	125
49	1140	0	127
49	1322	0	130
49	1946	0	134
49	2138	0	134
49	2698	0	135
49	2950	0	136
49	2954	0	136
49	4492	0	137
49	4724	0	138
49	6872	0	138
49	7312	0	142
50	81	0	51
50	296	0	107
50	356	0	108
50	412	0	110
50	414	0	110
50	460	0	114
50	565	0	117
50	609	0	123
50	655	0	125
50	769	0	125
50	851	0	127
50	857	0	127
50	918	0	127
50	951	0	127
50	1148	0	127
50	1318	0	130
50	1666	0	132
50	2090	0	134
50	2134	0	134
50	2366	0	134
50	2442	0	134
50	2478	0	134
50	2714	0	135
50	2826	0	136
50	2832	0	136
50	2948	0	136
50	2964	0	136
50	3156	0	136
50	3592	0	136
50	4284	0	137
50	4396	0	137
50	4476	0	137
50	4628	0	138
50	5760	0	138
50	5868	0	138
50	6004	0	138
50	6124	0	138
50	6644	0	138
50	7536	0	142
50	7616	0	142
50	7656	0	143
50	7680	0	143
51	82	0	52
51	140	0	82
51	182	0	89
51	267	0	103
51	289	0	106
51	336	0	107
51	388	0	109
51	397	0	109
51	433	0	112
51	552	0	117
51	560	0	117
51	676	0	125
51	705	0	125
51	732	0	125
51	738	0	125
51	755	0	125
51	772	0	125
51	879	0	127
51	947	0	127
51	1244	0	128
51	1252	0	128
51	1276	0	128
51	1562	0	132
51	1634	0	132
51	1726	0	132
51	1742	0	132
51	1784	0	132
51	2368	0	134
51	2796	0	135
51	3120	0	136
51	3280	0	136
51	3500	0	136
51	4320	0	137
51	4328	0	137
51	4432	0	137
51	4912	0	138
51	5196	0	138
51	5600	0	138
51	5808	0	138
51	6368	0	138
51	6568	0	138
51	6620	0	138
51	7432	0	142
52	87	0	53
52	144	0	83
52	240	0	103
52	459	0	114
52	470	0	114
52	474	0	114
52	554	0	117
52	815	0	126
52	911	0	127
52	945	0	127
52	1470	0	132
52	1668	0	132
52	1958	0	134
52	1964	0	134
52	2084	0	134
52	2280	0	134
52	2322	0	134
52	2486	0	134
52	2782	0	135
52	3496	0	136
52	3528	0	136
52	3636	0	136
52	3676	0	136
52	5344	0	138
52	6384	0	138
52	6780	0	138
52	6816	0	138
53	91	0	54
53	261	0	103
53	544	0	117
53	555	0	117
53	673	0	125
53	675	0	125
53	697	0	125
53	736	0	125
53	763	0	125
53	799	0	126
53	806	0	126
53	1236	0	128
53	1260	0	128
53	1500	0	132
53	1692	0	132
53	1770	0	132
53	1774	0	132
53	2384	0	134
53	2424	0	134
53	2526	0	134
53	2658	0	135
53	2738	0	135
53	2762	0	135
53	2766	0	135
53	2792	0	135
53	2866	0	136
53	2992	0	136
53	3364	0	136
53	3484	0	136
53	3532	0	136
53	4208	0	137
53	4464	0	137
53	4552	0	138
53	4644	0	138
53	4764	0	138
53	4896	0	138
53	5156	0	138
53	5388	0	138
53	5476	0	138
53	5532	0	138
53	5628	0	138
53	5748	0	138
53	5976	0	138
53	6500	0	138
53	6540	0	138
53	6576	0	138
53	7152	0	138
53	7184	0	138
53	7696	0	143
53	7712	0	143
53	7968	0	143
53	8352	0	143
53	8384	0	143
54	92	0	55
54	598	0	123
54	688	0	125
54	1510	0	132
54	1906	0	134
54	2030	0	134
54	2214	0	134
54	2524	0	134
54	3164	0	136
54	3716	0	136
54	4868	0	138
54	4980	0	138
54	5416	0	138
54	5960	0	138
54	6488	0	138
55	94	0	56
55	302	0	107
55	364	0	108
55	573	0	117
55	671	0	125
55	728	0	125
55	998	0	127
55	1298	0	130
55	1304	0	130
55	2024	0	134
55	2060	0	134
55	2068	0	134
55	2354	0	134
55	2492	0	134
55	2764	0	135
55	4648	0	138
55	5280	0	138
55	5948	0	138
55	7976	0	143
55	8432	0	143
56	95	0	57
56	275	0	104
56	424	0	111
56	833	0	127
56	872	0	127
56	1158	0	127
56	3760	0	136
56	4128	0	137
56	5688	0	138
56	6480	0	138
57	96	0	58
57	276	0	104
57	454	0	114
57	1522	0	132
57	1910	0	134
57	2028	0	134
57	2550	0	135
57	5412	0	138
57	5684	0	138
57	5956	0	138
57	6484	0	138
58	97	0	59
58	842	0	127
58	1524	0	132
59	98	0	60
59	308	0	107
59	320	0	107
59	325	0	107
59	417	0	110
59	423	0	111
59	504	0	115
59	822	0	126
59	1162	0	127
59	1234	0	128
59	1916	0	134
59	1920	0	134
59	2504	0	134
59	2924	0	136
59	3788	0	136
59	4032	0	136
59	5040	0	138
59	6208	0	138
59	6396	0	138
59	6544	0	138
59	7960	0	143
59	8128	0	143
60	99	0	61
60	205	0	94
60	825	0	126
60	906	0	127
60	1912	0	134
60	2026	0	134
60	2272	0	134
60	2864	0	136
60	3172	0	136
60	3876	0	136
60	3960	0	136
60	4768	0	138
60	4864	0	138
60	5144	0	138
60	5420	0	138
60	5740	0	138
60	7928	0	143
60	7944	0	143
60	8136	0	143
60	8288	0	143
61	101	0	62
61	124	0	76
61	206	0	94
61	234	0	103
61	236	0	103
61	333	0	107
61	425	0	111
61	522	0	117
61	526	0	117
61	905	0	127
61	1170	0	127
61	1178	0	127
61	1926	0	134
61	3756	0	136
61	3816	0	136
61	3924	0	136
61	4148	0	137
61	4160	0	137
61	4756	0	138
62	102	0	63
62	104	0	64
62	209	0	96
62	217	0	98
62	225	0	101
62	233	0	103
62	820	0	126
62	826	0	126
62	895	0	127
62	1100	0	127
62	1930	0	134
62	2268	0	134
62	3136	0	136
62	3256	0	136
62	3264	0	136
62	4196	0	137
62	4776	0	138
62	4832	0	138
62	5036	0	138
62	5708	0	138
62	5736	0	138
62	6476	0	138
62	8304	0	143
62	8320	0	143
63	103	0	64
63	215	0	98
63	309	0	107
63	326	0	107
63	329	0	107
63	518	0	116
63	524	0	117
63	904	0	127
63	1104	0	127
63	1168	0	127
63	1172	0	127
63	1200	0	127
63	1224	0	128
63	1360	0	130
63	1364	0	130
63	3260	0	136
63	3820	0	136
63	3884	0	136
63	3952	0	136
63	3984	0	136
63	3992	0	136
63	4000	0	136
63	4036	0	136
63	4780	0	138
63	4820	0	138
63	5716	0	138
64	105	0	65
64	821	0	126
64	1536	0	132
64	1540	0	132
64	3796	0	136
64	4828	0	138
64	5148	0	138
64	6532	0	138
64	8112	0	143
65	106	0	66
65	118	0	73
65	317	0	107
65	321	0	107
65	327	0	107
65	513	0	115
65	843	0	127
65	1160	0	127
65	1192	0	127
65	1378	0	130
65	1392	0	130
65	1526	0	132
65	3896	0	136
65	3908	0	136
65	4156	0	137
65	4752	0	138
65	4848	0	138
65	6428	0	138
66	107	0	67
66	322	0	107
66	332	0	107
66	514	0	115
66	521	0	117
66	828	0	126
66	903	0	127
66	1182	0	127
66	1202	0	127
66	1352	0	130
66	1374	0	130
66	1384	0	130
66	3228	0	136
66	3936	0	136
66	4016	0	136
66	4188	0	137
66	6412	0	138
67	108	0	68
67	112	0	71
67	114	0	72
67	116	0	73
67	119	0	73
67	221	0	101
67	229	0	103
67	232	0	103
67	237	0	103
67	830	0	126
67	1362	0	130
67	1372	0	130
67	1376	0	130
67	2270	0	134
67	3200	0	136
67	3216	0	136
67	3232	0	136
67	3892	0	136
67	3944	0	136
67	3964	0	136
67	4028	0	136
67	4052	0	137
67	4192	0	137
67	4816	0	138
67	4836	0	138
67	6456	0	138
68	109	0	69
68	238	0	103
68	508	0	115
68	528	0	117
68	894	0	127
68	899	0	127
68	1102	0	127
68	3204	0	136
68	3744	0	136
68	4024	0	136
68	5428	0	138
68	6440	0	138
68	6512	0	138
69	110	0	70
69	510	0	115
69	527	0	117
69	1184	0	127
69	1198	0	127
69	1226	0	128
69	1358	0	130
69	3184	0	136
69	3196	0	136
69	3224	0	136
69	3752	0	136
69	5720	0	138
69	6404	0	138
69	6452	0	138
69	6464	0	138
70	111	0	71
70	316	0	107
70	419	0	110
70	427	0	111
70	1188	0	127
70	1210	0	127
70	1230	0	128
70	3188	0	136
70	3968	0	136
70	4172	0	137
70	4784	0	138
70	4792	0	138
71	113	0	72
71	117	0	73
71	334	0	107
71	817	0	126
71	823	0	126
71	831	0	126
71	1534	0	132
71	1772	0	132
71	3832	0	136
71	3980	0	136
71	4080	0	137
71	4124	0	137
71	4140	0	137
71	4884	0	138
71	5152	0	138
71	5696	0	138
71	6432	0	138
71	6536	0	138
71	6552	0	138
71	8080	0	143
71	8344	0	143
72	115	0	73
72	324	0	107
72	517	0	116
72	819	0	126
72	1164	0	127
72	1338	0	130
72	1390	0	130
72	1924	0	134
72	2502	0	134
72	2872	0	136
72	3900	0	136
72	4064	0	137
72	8296	0	143
73	120	0	74
73	230	0	103
73	519	0	116
73	525	0	117
73	836	0	127
73	839	0	127
73	1180	0	127
73	1186	0	127
73	3220	0	136
73	3236	0	136
73	3928	0	136
73	4008	0	136
73	4840	0	138
73	5028	0	138
74	121	0	75
74	212	0	97
74	310	0	107
74	315	0	107
74	323	0	107
74	328	0	107
74	428	0	111
74	505	0	115
74	515	0	115
74	835	0	127
74	1206	0	127
74	1232	0	128
74	1368	0	130
74	1382	0	130
74	3180	0	136
74	4020	0	136
74	4072	0	137
74	4136	0	137
74	4856	0	138
74	6420	0	138
74	6436	0	138
74	6548	0	138
74	8336	0	143
75	122	0	76
75	502	0	115
75	506	0	115
75	1370	0	130
75	3212	0	136
75	3748	0	136
75	4048	0	137
75	6516	0	138
76	128	0	77
76	189	0	89
76	537	0	117
76	707	0	125
76	714	0	125
76	746	0	125
76	801	0	126
76	954	0	127
76	1048	0	127
76	1436	0	132
76	1494	0	132
76	1620	0	132
76	1640	0	132
76	2308	0	134
76	2388	0	134
76	2460	0	134
76	2802	0	135
76	2978	0	136
76	3476	0	136
76	3520	0	136
76	3552	0	136
76	3608	0	136
76	3632	0	136
76	4436	0	137
76	4680	0	138
76	5260	0	138
76	5324	0	138
76	5376	0	138
76	6132	0	138
76	6708	0	138
76	6764	0	138
76	6776	0	138
76	6796	0	138
76	6840	0	138
76	6904	0	138
76	6920	0	138
76	7520	0	142
76	7576	0	142
77	129	0	78
77	196	0	91
77	355	0	108
77	924	0	127
77	1806	0	132
77	1880	0	132
77	1888	0	134
77	2136	0	134
77	2690	0	135
77	4300	0	137
77	5320	0	138
77	7264	0	142
77	7480	0	142
78	130	0	79
78	580	0	117
78	657	0	125
78	742	0	125
78	1290	0	130
78	1812	0	132
78	1820	0	132
78	2682	0	135
78	2688	0	135
78	4584	0	138
78	5244	0	138
78	5252	0	138
78	7272	0	142
79	131	0	80
79	147	0	84
79	194	0	90
79	490	0	115
79	579	0	117
79	581	0	117
79	641	0	123
79	914	0	127
79	921	0	127
79	1046	0	127
79	1074	0	127
79	1136	0	127
79	1150	0	127
79	1326	0	130
79	1452	0	132
79	2290	0	134
79	2378	0	134
79	2692	0	135
79	2812	0	136
79	2944	0	136
79	3088	0	136
79	3512	0	136
79	4508	0	137
79	4580	0	138
79	4592	0	138
79	6772	0	138
80	132	0	81
80	149	0	85
80	188	0	89
80	354	0	108
80	391	0	109
80	479	0	114
80	582	0	117
80	650	0	124
80	653	0	124
80	744	0	125
80	887	0	127
80	929	0	127
80	1040	0	127
80	1320	0	130
80	1822	0	132
80	2284	0	134
80	2706	0	135
80	2960	0	136
80	2976	0	136
80	3100	0	136
80	4504	0	137
80	4524	0	137
80	4588	0	138
80	4596	0	138
80	4720	0	138
80	5076	0	138
80	5240	0	138
80	6936	0	138
80	7464	0	142
81	133	0	82
81	406	0	110
81	477	0	114
81	480	0	114
81	488	0	115
81	586	0	117
81	638	0	123
81	640	0	123
81	919	0	127
81	1038	0	127
81	1078	0	127
81	1142	0	127
81	1492	0	132
81	1878	0	132
81	1950	0	134
81	2140	0	134
81	2164	0	134
81	2380	0	134
81	2684	0	135
81	5852	0	138
81	7304	0	142
82	142	0	83
82	283	0	106
82	369	0	109
82	389	0	109
82	472	0	114
82	530	0	117
82	612	0	123
82	749	0	125
82	805	0	126
82	812	0	126
82	849	0	127
82	953	0	127
82	986	0	127
82	1094	0	127
82	1564	0	132
82	1600	0	132
82	1608	0	132
82	1712	0	132
82	1718	0	132
82	1776	0	132
82	1870	0	132
82	2100	0	134
82	2264	0	134
82	2362	0	134
82	2672	0	135
82	3076	0	136
82	3384	0	136
82	3568	0	136
82	3728	0	136
82	4336	0	137
82	4468	0	137
82	5340	0	138
82	5588	0	138
82	5784	0	138
82	6032	0	138
82	7192	0	138
82	7208	0	140
83	146	0	84
83	345	0	107
83	583	0	117
83	850	0	127
83	854	0	127
83	888	0	127
83	910	0	127
83	1128	0	127
83	1420	0	132
83	1438	0	132
83	1472	0	132
83	1804	0	132
83	2146	0	134
83	2360	0	134
83	2420	0	134
83	2594	0	135
83	2618	0	135
83	2678	0	135
83	4540	0	138
83	5164	0	138
83	5828	0	138
83	5864	0	138
83	6852	0	138
83	6876	0	138
83	6948	0	138
83	7216	0	141
83	7336	0	142
84	148	0	85
84	643	0	123
84	649	0	124
84	658	0	125
84	920	0	127
84	923	0	127
84	930	0	127
84	1674	0	132
84	2686	0	135
84	2814	0	136
84	4500	0	137
84	6868	0	138
85	157	0	86
85	269	0	103
85	272	0	104
85	280	0	106
85	363	0	108
85	690	0	125
85	989	0	127
85	1860	0	132
85	2094	0	134
85	2184	0	134
85	2210	0	134
85	2410	0	134
85	2626	0	135
85	2630	0	135
85	3684	0	136
85	4404	0	137
85	5204	0	138
85	6020	0	138
85	6960	0	138
85	7992	0	143
85	8056	0	143
86	159	0	87
86	442	0	113
86	670	0	125
86	785	0	125
86	967	0	127
86	973	0	127
86	1588	0	132
86	2108	0	134
86	2518	0	134
86	2542	0	134
86	3324	0	136
86	4240	0	137
86	4976	0	138
86	5508	0	138
86	5944	0	138
86	6692	0	138
87	162	0	88
87	444	0	113
87	536	0	117
87	588	0	117
87	716	0	125
87	793	0	126
87	1446	0	132
87	1474	0	132
87	1592	0	132
87	1830	0	132
87	2020	0	134
87	2174	0	134
87	2324	0	134
87	2358	0	134
87	2806	0	136
87	2878	0	136
87	2900	0	136
87	3104	0	136
87	3692	0	136
87	4252	0	137
87	5064	0	138
87	5308	0	138
87	5380	0	138
87	5460	0	138
87	5796	0	138
87	6008	0	138
87	6048	0	138
87	6156	0	138
87	6224	0	138
87	6604	0	138
87	6800	0	138
87	6812	0	138
87	6856	0	138
87	7112	0	138
87	7528	0	142
87	7776	0	143
87	8368	0	143
88	166	0	89
88	531	0	117
88	599	0	123
88	803	0	126
88	816	0	126
88	871	0	127
88	907	0	127
88	996	0	127
88	1120	0	127
88	1156	0	127
88	1336	0	130
88	1514	0	132
88	1580	0	132
88	1684	0	132
88	2118	0	134
88	2122	0	134
88	2186	0	134
88	2238	0	134
88	2304	0	134
88	2456	0	134
88	2778	0	135
88	3268	0	136
88	3332	0	136
88	4200	0	137
88	4356	0	137
88	4968	0	138
88	5052	0	138
88	5348	0	138
88	6700	0	138
88	7136	0	138
88	7176	0	138
88	8280	0	143
89	193	0	90
89	246	0	103
89	413	0	110
89	445	0	113
89	584	0	117
89	610	0	123
89	629	0	123
89	634	0	123
89	647	0	124
89	915	0	127
89	917	0	127
89	934	0	127
89	1044	0	127
89	1292	0	130
89	1450	0	132
89	1672	0	132
89	1874	0	132
89	2732	0	135
89	2828	0	136
89	2850	0	136
89	5080	0	138
89	7288	0	142
89	7488	0	142
89	7648	0	143
90	195	0	91
90	481	0	114
90	627	0	123
90	652	0	124
90	661	0	125
90	931	0	127
90	1816	0	132
90	1944	0	134
90	2704	0	135
90	6864	0	138
90	7280	0	142
91	197	0	92
91	407	0	110
91	482	0	114
91	486	0	115
91	491	0	115
91	626	0	123
91	656	0	125
91	745	0	125
91	916	0	127
91	922	0	127
91	1132	0	127
91	1328	0	130
91	1814	0	132
91	2286	0	134
91	2418	0	134
91	2820	0	136
91	2842	0	136
91	3092	0	136
91	4496	0	137
91	6768	0	138
91	6836	0	138
91	6844	0	138
91	7328	0	142
91	8496	0	143
92	200	0	93
92	301	0	107
92	341	0	107
92	394	0	109
92	469	0	114
92	475	0	114
92	557	0	117
92	701	0	125
92	703	0	125
92	794	0	126
92	943	0	127
92	952	0	127
92	1312	0	130
92	1652	0	132
92	1854	0	132
92	1960	0	134
92	2034	0	134
92	2048	0	134
92	2088	0	134
92	2092	0	134
92	2132	0	134
92	2154	0	134
92	2278	0	134
92	2328	0	134
92	2558	0	135
92	2650	0	135
92	2724	0	135
92	2854	0	136
92	3380	0	136
92	3640	0	136
92	3648	0	136
92	4640	0	138
92	5208	0	138
92	5564	0	138
92	5876	0	138
92	6052	0	138
92	6988	0	138
92	7088	0	138
92	7808	0	143
92	8040	0	143
92	8456	0	143
93	204	0	94
93	307	0	107
93	335	0	107
93	416	0	110
93	607	0	123
93	813	0	126
93	878	0	127
93	892	0	127
93	1242	0	128
93	1546	0	132
93	1658	0	132
93	2006	0	134
93	2072	0	134
93	2242	0	134
93	3008	0	136
93	3132	0	136
93	4940	0	138
93	5044	0	138
93	5772	0	138
93	6212	0	138
93	6388	0	138
93	6508	0	138
94	207	0	95
94	210	0	96
94	216	0	98
94	226	0	101
94	330	0	107
94	523	0	117
94	902	0	127
94	1176	0	127
94	1190	0	127
94	1346	0	130
94	1356	0	130
94	3240	0	136
94	3916	0	136
94	3948	0	136
94	4012	0	136
94	4808	0	138
94	5732	0	138
94	8328	0	143
95	208	0	96
95	313	0	107
95	319	0	107
95	503	0	115
95	512	0	115
95	838	0	127
95	876	0	127
95	1340	0	130
95	1528	0	132
95	3940	0	136
95	4748	0	138
95	6460	0	138
96	211	0	97
96	311	0	107
96	421	0	111
96	1220	0	128
96	1344	0	130
96	1914	0	134
96	2116	0	134
96	3176	0	136
96	3244	0	136
96	3252	0	136
96	3800	0	136
96	3808	0	136
96	3888	0	136
96	3956	0	136
96	4060	0	137
96	4076	0	137
96	4144	0	137
96	4772	0	138
96	6424	0	138
96	8088	0	143
97	214	0	98
97	222	0	101
97	224	0	101
97	351	0	108
97	1106	0	127
97	2248	0	134
97	2920	0	136
97	3012	0	136
97	4040	0	136
97	5016	0	138
97	5540	0	138
97	7408	0	142
98	218	0	99
98	314	0	107
98	841	0	127
98	873	0	127
98	1366	0	130
98	1380	0	130
98	1394	0	130
98	1542	0	132
98	2500	0	134
98	3140	0	136
98	3812	0	136
98	3824	0	136
98	3836	0	136
98	4132	0	137
98	5700	0	138
98	7936	0	143
98	8120	0	143
98	8312	0	143
99	219	0	100
99	312	0	107
99	418	0	110
99	422	0	111
99	507	0	115
99	829	0	126
99	1174	0	127
99	1196	0	127
99	1388	0	130
99	1532	0	132
99	2114	0	134
99	2922	0	136
99	3880	0	136
99	3904	0	136
99	3920	0	136
99	4812	0	138
99	4852	0	138
99	5020	0	138
99	5704	0	138
99	5712	0	138
99	5724	0	138
99	6392	0	138
99	6416	0	138
99	7952	0	143
100	220	0	101
100	818	0	126
100	824	0	126
100	834	0	127
100	844	0	127
100	877	0	127
100	897	0	127
100	1342	0	130
100	1922	0	134
100	3248	0	136
100	3792	0	136
100	4152	0	137
100	4744	0	138
100	4760	0	138
100	4860	0	138
100	5692	0	138
100	8072	0	143
101	227	0	102
101	331	0	107
101	511	0	115
101	875	0	127
101	1204	0	127
101	1212	0	127
101	1216	0	128
101	1350	0	130
101	4176	0	137
101	4184	0	137
102	228	0	103
102	231	0	103
102	318	0	107
102	426	0	111
102	837	0	127
102	1218	0	128
102	1354	0	130
102	3804	0	136
102	3972	0	136
102	3996	0	136
102	4004	0	136
102	5024	0	138
102	6408	0	138
102	6448	0	138
102	6468	0	138
102	8096	0	143
103	271	0	104
103	1908	0	134
103	5676	0	138
103	5952	0	138
104	277	0	105
104	342	0	107
104	567	0	117
104	694	0	125
104	966	0	127
104	975	0	127
104	1688	0	132
104	1722	0	132
104	1762	0	132
104	1768	0	132
104	1840	0	132
104	1982	0	134
104	2274	0	134
104	2508	0	134
104	2556	0	135
104	2564	0	135
104	2772	0	135
104	3844	0	136
104	5552	0	138
104	7704	0	143
104	7816	0	143
105	278	0	106
105	340	0	107
105	362	0	108
105	546	0	117
105	549	0	117
105	558	0	117
105	568	0	117
105	622	0	123
105	1414	0	132
105	1432	0	132
105	1442	0	132
105	1582	0	132
105	1618	0	132
105	1680	0	132
105	1720	0	132
105	1962	0	134
105	2130	0	134
105	2172	0	134
105	2192	0	134
105	2258	0	134
105	2352	0	134
105	2426	0	134
105	2454	0	134
105	2532	0	134
105	2754	0	135
105	2868	0	136
105	3272	0	136
105	4384	0	137
105	4428	0	137
105	4452	0	137
105	4536	0	138
105	5048	0	138
105	5224	0	138
105	5436	0	138
105	5820	0	138
105	6044	0	138
105	6112	0	138
105	6216	0	138
105	6912	0	138
105	7120	0	138
105	7544	0	142
105	7584	0	142
105	7728	0	143
105	8360	0	143
106	292	0	107
106	344	0	107
106	463	0	114
106	478	0	114
106	682	0	125
106	684	0	125
106	761	0	125
106	797	0	126
106	935	0	127
106	1144	0	127
106	1454	0	132
106	1576	0	132
106	1752	0	132
106	1890	0	134
106	1952	0	134
106	2190	0	134
106	2310	0	134
106	2414	0	134
106	2600	0	135
106	2640	0	135
106	2794	0	135
106	2822	0	136
106	2942	0	136
106	3376	0	136
106	3516	0	136
106	3548	0	136
106	3708	0	136
106	4424	0	137
106	4576	0	138
106	5068	0	138
106	5520	0	138
106	5780	0	138
106	6572	0	138
106	6580	0	138
106	6804	0	138
106	8248	0	143
107	346	0	108
107	645	0	124
107	651	0	124
107	659	0	125
107	961	0	127
107	1676	0	132
107	1942	0	134
107	2702	0	135
107	2808	0	136
107	4512	0	137
107	5236	0	138
107	5464	0	138
107	5848	0	138
107	5856	0	138
107	6060	0	138
107	6820	0	138
108	366	0	109
108	443	0	113
108	548	0	117
108	600	0	123
108	614	0	123
108	766	0	125
108	791	0	126
108	1028	0	127
108	1032	0	127
108	1054	0	127
108	1584	0	132
108	1708	0	132
108	2022	0	134
108	2176	0	134
108	2256	0	134
108	2386	0	134
108	2742	0	135
108	2760	0	135
108	3072	0	136
108	3276	0	136
108	4308	0	137
108	4456	0	137
108	4652	0	138
108	4700	0	138
108	4892	0	138
108	4920	0	138
108	4928	0	138
108	5000	0	138
108	5488	0	138
108	6176	0	138
108	6792	0	138
108	7104	0	138
108	7552	0	142
109	404	0	110
109	494	0	115
109	635	0	123
109	959	0	127
109	1288	0	130
109	1810	0	132
109	1948	0	134
109	2292	0	134
109	2440	0	134
109	2696	0	135
109	2840	0	136
109	2846	0	136
109	2946	0	136
109	4488	0	137
109	6128	0	138
109	6884	0	138
109	7320	0	142
109	7632	0	142
109	8264	0	143
110	420	0	111
110	827	0	126
110	1194	0	127
110	1928	0	134
110	3912	0	136
110	4824	0	138
110	8104	0	143
111	431	0	112
111	499	0	115
111	711	0	125
111	778	0	125
111	865	0	127
111	891	0	127
111	948	0	127
111	981	0	127
111	990	0	127
111	994	0	127
111	1014	0	127
111	1056	0	127
111	1440	0	132
111	1550	0	132
111	1724	0	132
111	2056	0	134
111	2096	0	134
111	2348	0	134
111	2394	0	134
111	2432	0	134
111	2480	0	134
111	2632	0	135
111	2666	0	135
111	2774	0	135
111	3068	0	136
111	3868	0	136
111	4256	0	137
111	4408	0	137
111	4736	0	138
111	5192	0	138
111	5288	0	138
111	5452	0	138
111	5556	0	138
111	5660	0	138
111	5892	0	138
111	6012	0	138
111	6808	0	138
111	7376	0	142
111	7672	0	143
112	437	0	113
112	452	0	113
112	466	0	114
112	691	0	125
112	775	0	125
112	2040	0	134
112	2202	0	134
112	2404	0	134
112	2554	0	135
112	6492	0	138
113	453	0	114
113	455	0	114
113	467	0	114
113	974	0	127
113	2062	0	134
113	2180	0	134
113	2522	0	134
113	3320	0	136
113	5680	0	138
113	7984	0	143
114	485	0	115
114	489	0	115
114	492	0	115
114	538	0	117
114	637	0	123
114	642	0	123
114	856	0	127
114	926	0	127
114	932	0	127
114	1042	0	127
114	1130	0	127
114	1134	0	127
114	2018	0	134
114	2142	0	134
114	2718	0	135
114	2816	0	136
114	2952	0	136
114	2956	0	136
114	3096	0	136
114	6360	0	138
114	6828	0	138
114	6860	0	138
115	516	0	116
115	840	0	127
115	874	0	127
115	900	0	127
115	1166	0	127
115	1228	0	128
115	1348	0	130
115	1386	0	130
115	1530	0	132
115	3192	0	136
115	3208	0	136
115	3976	0	136
115	4056	0	137
115	4844	0	138
115	5032	0	138
115	5728	0	138
115	6444	0	138
115	6472	0	138
115	6520	0	138
116	520	0	117
116	901	0	127
116	1208	0	127
116	3932	0	136
116	4796	0	138
116	4804	0	138
116	6524	0	138
117	589	0	118
117	595	0	123
117	6252	0	138
117	6268	0	138
117	6292	0	138
117	6308	0	138
117	6328	0	138
117	6968	0	138
117	6976	0	138
118	590	0	119
118	2894	0	136
118	6260	0	138
118	6272	0	138
118	6300	0	138
119	591	0	120
119	788	0	125
119	2888	0	136
119	2892	0	136
119	6264	0	138
119	6288	0	138
119	6332	0	138
119	6348	0	138
120	592	0	121
120	787	0	125
120	2574	0	135
120	2896	0	136
120	6256	0	138
120	6352	0	138
121	593	0	122
121	2572	0	135
121	2882	0	136
121	6312	0	138
121	6340	0	138
122	594	0	123
122	2890	0	136
122	6344	0	138
123	644	0	124
123	646	0	124
123	648	0	124
123	660	0	125
123	740	0	125
123	925	0	127
123	933	0	127
123	960	0	127
123	1324	0	130
123	2958	0	136
123	3084	0	136
123	6824	0	138
124	654	0	125
124	4520	0	137
125	789	0	126
125	2886	0	136
125	6296	0	138
125	6304	0	138
125	6320	0	138
125	6356	0	138
126	832	0	127
126	3764	0	136
126	3776	0	136
126	3784	0	136
126	3828	0	136
126	4084	0	137
126	4120	0	137
127	1214	0	128
127	4180	0	137
128	1538	0	132
128	4168	0	137
128	4788	0	138
128	4800	0	138
128	6528	0	138
129	1882	0	133
129	1886	0	134
129	5248	0	138
129	8512	0	143
130	1884	0	134
131	3768	0	136
131	3780	0	136
131	4088	0	137
131	4096	0	137
131	4104	0	137
131	4112	0	137
132	3772	0	136
132	4092	0	137
132	4108	0	137
133	4100	0	137
133	4116	0	137
134	4164	0	137
135	6276	0	138
135	6284	0	138
135	6324	0	138
135	6336	0	138
136	6280	0	138
136	6316	0	138
137	8520	0	144
138	8528	0	145

