file 48553 1756984403                                           
version 3
run General-402-20250904-14:13:23-15872
attr configname General
attr datetime 20250904-14:13:23
attr datetimef 20250904-141323
attr experiment General
attr inifile omnetpp.ini
attr iterationvars ""
attr iterationvarsd ""
attr iterationvarsf ""
attr measurement ""
attr network TaxiNetwork
attr processid 15872
attr repetition 402
attr replication #402
attr resultdir results
attr runnumber 402
attr seedset 402
config network TaxiNetwork
config seed-set 402
config num-rngs 1
config sim-time-limit 10s
config repeat 500
config *.numWalkers 1
config *.enableDuplication true
config *.rc 700
config **.node[0].xCor 2933
config **.node[0].yCor 2747
config **.node[1].xCor 2919
config **.node[1].yCor 2817
config **.node[2].xCor 2910
config **.node[2].yCor 2861
config **.node[3].xCor 2429
config **.node[3].yCor 2851
config **.node[4].xCor 2908
config **.node[4].yCor 2714
config **.node[5].xCor 2606
config **.node[5].yCor 2722
config **.node[6].xCor 2575
config **.node[6].yCor 2753
config **.node[7].xCor 2654
config **.node[7].yCor 2513
config **.node[8].xCor 2773
config **.node[8].yCor 2580
config **.node[9].xCor 3043
config **.node[9].yCor 2780
config **.node[10].xCor 3020
config **.node[10].yCor 2813
config **.node[11].xCor 2599
config **.node[11].yCor 2300
config **.node[12].xCor 2917
config **.node[12].yCor 2698
config **.node[13].xCor 2625
config **.node[13].yCor 2641
config **.node[14].xCor 2604
config **.node[14].yCor 2790
config **.node[15].xCor 2786
config **.node[15].yCor 3082
config **.node[16].xCor 2603
config **.node[16].yCor 2802
config **.node[17].xCor 2637
config **.node[17].yCor 2869
config **.node[18].xCor 2675
config **.node[18].yCor 2955
config **.node[19].xCor 2845
config **.node[19].yCor 2937
config **.node[20].xCor 2860
config **.node[20].yCor 2888
config **.node[21].xCor 2843
config **.node[21].yCor 4158
config **.node[22].xCor 2852
config **.node[22].yCor 4017
config **.node[23].xCor 2892
config **.node[23].yCor 4961
config **.node[24].xCor 2313
config **.node[24].yCor 3993
config **.node[25].xCor 2891
config **.node[25].yCor 4959
config **.node[26].xCor 2370
config **.node[26].yCor 4050
config **.node[27].xCor 2788
config **.node[27].yCor 3958
config **.node[28].xCor 2819
config **.node[28].yCor 4428
config **.node[29].xCor 2790
config **.node[29].yCor 3761
config **.node[30].xCor 2809
config **.node[30].yCor 2908
config **.node[31].xCor 2919
config **.node[31].yCor 3575
config **.node[32].xCor 2946
config **.node[32].yCor 3466
config **.node[33].xCor 2911
config **.node[33].yCor 3453
config **.node[34].xCor 2370
config **.node[34].yCor 3656
config **.node[35].xCor 2438
config **.node[35].yCor 3738
config **.node[36].xCor 2737
config **.node[36].yCor 3570
config **.node[37].xCor 2921
config **.node[37].yCor 3698
config **.node[38].xCor 2907
config **.node[38].yCor 5197
config **.node[39].xCor 2860
config **.node[39].yCor 3852
config **.node[40].xCor 2927
config **.node[40].yCor 3684
config **.node[41].xCor 3023
config **.node[41].yCor 5313
config **.node[42].xCor 3220
config **.node[42].yCor 5811
config **.node[43].xCor 3432
config **.node[43].yCor 5715
config **.node[44].xCor 2754
config **.node[44].yCor 2463
config **.node[45].xCor 2646
config **.node[45].yCor 2673
config **.node[46].xCor 3051
config **.node[46].yCor 2792
config **.node[47].xCor 1666
config **.node[47].yCor 3697
config **.node[48].xCor 1662
config **.node[48].yCor 3694
config **.node[49].xCor 1664
config **.node[49].yCor 3667
config **.node[50].xCor 1660
config **.node[50].yCor 3664
config **.node[51].xCor 1710
config **.node[51].yCor 3573
config **.node[52].xCor 2082
config **.node[52].yCor 2650
config **.node[53].xCor 2086
config **.node[53].yCor 2657
config **.node[54].xCor 2257
config **.node[54].yCor 3232
config **.node[55].xCor 2258
config **.node[55].yCor 3225
config **.node[56].xCor 1926
config **.node[56].yCor 2570
config **.node[57].xCor 1926
config **.node[57].yCor 2576
config **.node[58].xCor 2104
config **.node[58].yCor 1758
config **.node[59].xCor 1957
config **.node[59].yCor 1826
config **.node[60].xCor 3473
config **.node[60].yCor 1523
config **.node[61].xCor 3335
config **.node[61].yCor 1726
config **.node[62].xCor 3478
config **.node[62].yCor 1517
config **.node[63].xCor 3386
config **.node[63].yCor 2119
config **.node[64].xCor 3474
config **.node[64].yCor 1762
config **.node[65].xCor 3797
config **.node[65].yCor 2099
config **.node[66].xCor 3642
config **.node[66].yCor 2136
config **.node[67].xCor 3481
config **.node[67].yCor 2334
config **.node[68].xCor 3088
config **.node[68].yCor 1505
config **.node[69].xCor 3037
config **.node[69].yCor 1693
config **.node[70].xCor 3026
config **.node[70].yCor 1700
config **.node[71].xCor 3019
config **.node[71].yCor 669
config **.node[72].xCor 3513
config **.node[72].yCor 1358
config **.node[73].xCor 3545
config **.node[73].yCor 1230
config **.node[74].xCor 4228
config **.node[74].yCor 4220
config **.node[75].xCor 3379
config **.node[75].yCor 1207
config **.node[76].xCor 3596
config **.node[76].yCor 963
config **.node[77].xCor 3637
config **.node[77].yCor 1188
config **.node[78].xCor 3759
config **.node[78].yCor 1030
config **.node[79].xCor 2918
config **.node[79].yCor 1455
config **.node[80].xCor 2711
config **.node[80].yCor 1297
config **.node[81].xCor 439
config **.node[81].yCor 1623
config **.node[82].xCor 2857
config **.node[82].yCor 3581
config **.node[83].xCor 2858
config **.node[83].yCor 3584
config **.node[84].xCor 2999
config **.node[84].yCor 2636
config **.node[85].xCor 2905
config **.node[85].yCor 2778
config **.node[86].xCor 2653
config **.node[86].yCor 2845
config **.node[87].xCor 2864
config **.node[87].yCor 2836
config **.node[88].xCor 2426
config **.node[88].yCor 2892
config **.node[89].xCor 2964
config **.node[89].yCor 2804
config **.node[90].xCor 2586
config **.node[90].yCor 3135
config **.node[91].xCor 2864
config **.node[91].yCor 2980
config **.node[92].xCor 2527
config **.node[92].yCor 3219
config **.node[93].xCor 2863
config **.node[93].yCor 3142
config **.node[94].xCor 2485
config **.node[94].yCor 3269
config **.node[95].xCor 2653
config **.node[95].yCor 1065
config **.node[96].xCor 4062
config **.node[96].yCor 400
config **.node[97].xCor 5762
config **.node[97].yCor 3023
config **.node[98].xCor 1414
config **.node[98].yCor 3461
config **.node[99].xCor 2911
config **.node[99].yCor 1737
config **.node[100].xCor 2595
config **.node[100].yCor 2299
config **.node[101].xCor 2702
config **.node[101].yCor 3419
config **.node[102].xCor 2813
config **.node[102].yCor 3307
config **.node[103].xCor 2638
config **.node[103].yCor 2258
config **.node[104].xCor 2590
config **.node[104].yCor 3125
config **.node[105].xCor 1856
config **.node[105].yCor 2990
config **.node[106].xCor 1894
config **.node[106].yCor 2239
config **.node[107].xCor 383
config **.node[107].yCor 1251
config **.node[108].xCor 3447
config **.node[108].yCor 5489
config **.node[109].xCor 3450
config **.node[109].yCor 5697
config **.node[110].xCor 2719
config **.node[110].yCor 1920
config **.node[111].xCor 2085
config **.node[111].yCor 2389
config **.node[112].xCor 1910
config **.node[112].yCor 2548
config **.node[113].xCor 2069
config **.node[113].yCor 2050
config **.node[114].xCor 2184
config **.node[114].yCor 2209
config **.node[115].xCor 2278
config **.node[115].yCor 2390
config **.node[116].xCor 2249
config **.node[116].yCor 2299
config **.node[117].xCor 2356
config **.node[117].yCor 2303
config **.node[118].xCor 2192
config **.node[118].yCor 2475
config **.node[119].xCor 1720
config **.node[119].yCor 2911
config **.node[120].xCor 2400
config **.node[120].yCor 2887
config **.node[121].xCor 3344
config **.node[121].yCor 1890
config **.node[122].xCor 3136
config **.node[122].yCor 2418
config **.node[123].xCor 3243
config **.node[123].yCor 2525
config **.node[124].xCor 2396
config **.node[124].yCor 1267
config **.node[125].xCor 467
config **.node[125].yCor 1875
config **.node[126].xCor 3506
config **.node[126].yCor 1221
config **.node[127].xCor 1034
config **.node[127].yCor 1474
config **.node[128].xCor 2908
config **.node[128].yCor 1784
config **.node[129].xCor 2876
config **.node[129].yCor 1761
config **.node[130].xCor 2849
config **.node[130].yCor 1795
config **.node[131].xCor 3029
config **.node[131].yCor 1859
config **.node[132].xCor 2924
config **.node[132].yCor 1848
config **.node[133].xCor 3493
config **.node[133].yCor 1559
config **.node[134].xCor 2760
config **.node[134].yCor 1761
config **.node[135].xCor 1644
config **.node[135].yCor 3755
config **.node[136].xCor 1463
config **.node[136].yCor 3432
config **.node[137].xCor 2595
config **.node[137].yCor 2849
config **.node[138].xCor 2581
config **.node[138].yCor 2867
config **.node[139].xCor 2524
config **.node[139].yCor 2911
config **.node[140].xCor 2570
config **.node[140].yCor 2924
config **.node[141].xCor 2676
config **.node[141].yCor 2890
config **.node[142].xCor 2666
config **.node[142].yCor 2876
config **.node[143].xCor 3735
config **.node[143].yCor 1726
config **.node[144].xCor 1637
config **.node[144].yCor 3438

vector 0 TaxiNetwork.node[5] visitedPerTimestep ETV
vector 1 TaxiNetwork.node[7] visitedPerTimestep ETV
vector 2 TaxiNetwork.node[6] visitedPerTimestep ETV
vector 3 TaxiNetwork.node[11] visitedPerTimestep ETV
vector 4 TaxiNetwork.node[89] visitedPerTimestep ETV
vector 5 TaxiNetwork.node[15] visitedPerTimestep ETV
vector 6 TaxiNetwork.node[87] visitedPerTimestep ETV
vector 7 TaxiNetwork.node[92] visitedPerTimestep ETV
vector 8 TaxiNetwork.node[17] visitedPerTimestep ETV
vector 9 TaxiNetwork.node[141] visitedPerTimestep ETV
vector 10 TaxiNetwork.node[45] visitedPerTimestep ETV
vector 11 TaxiNetwork.node[8] visitedPerTimestep ETV
vector 12 TaxiNetwork.node[10] visitedPerTimestep ETV
vector 13 TaxiNetwork.node[1] visitedPerTimestep ETV
vector 14 TaxiNetwork.node[88] visitedPerTimestep ETV
vector 15 TaxiNetwork.node[44] visitedPerTimestep ETV
vector 16 TaxiNetwork.node[122] visitedPerTimestep ETV
vector 17 TaxiNetwork.node[84] visitedPerTimestep ETV
vector 18 TaxiNetwork.node[3] visitedPerTimestep ETV
vector 19 TaxiNetwork.node[100] visitedPerTimestep ETV
vector 20 TaxiNetwork.node[46] visitedPerTimestep ETV
vector 21 TaxiNetwork.node[131] visitedPerTimestep ETV
vector 22 TaxiNetwork.node[123] visitedPerTimestep ETV
vector 23 TaxiNetwork.node[65] visitedPerTimestep ETV
vector 24 TaxiNetwork.node[63] visitedPerTimestep ETV
vector 25 TaxiNetwork.node[121] visitedPerTimestep ETV
vector 26 TaxiNetwork.node[4] visitedPerTimestep ETV
vector 27 TaxiNetwork.node[118] visitedPerTimestep ETV
vector 28 TaxiNetwork.node[16] visitedPerTimestep ETV
vector 29 TaxiNetwork.node[117] visitedPerTimestep ETV
vector 30 TaxiNetwork.node[138] visitedPerTimestep ETV
vector 31 TaxiNetwork.node[30] visitedPerTimestep ETV
vector 32 TaxiNetwork.node[142] visitedPerTimestep ETV
vector 33 TaxiNetwork.node[103] visitedPerTimestep ETV
vector 34 TaxiNetwork.node[115] visitedPerTimestep ETV
vector 35 TaxiNetwork.node[85] visitedPerTimestep ETV
vector 36 TaxiNetwork.node[90] visitedPerTimestep ETV
vector 37 TaxiNetwork.node[91] visitedPerTimestep ETV
vector 38 TaxiNetwork.node[13] visitedPerTimestep ETV
vector 39 TaxiNetwork.node[137] visitedPerTimestep ETV
vector 40 TaxiNetwork.node[20] visitedPerTimestep ETV
vector 41 TaxiNetwork.node[31] visitedPerTimestep ETV
vector 42 TaxiNetwork.node[93] visitedPerTimestep ETV
vector 43 TaxiNetwork.node[83] visitedPerTimestep ETV
vector 44 TaxiNetwork.node[26] visitedPerTimestep ETV
vector 45 TaxiNetwork.node[36] visitedPerTimestep ETV
vector 46 TaxiNetwork.node[53] visitedPerTimestep ETV
vector 47 TaxiNetwork.node[9] visitedPerTimestep ETV
vector 48 TaxiNetwork.node[114] visitedPerTimestep ETV
vector 49 TaxiNetwork.node[119] visitedPerTimestep ETV
vector 50 TaxiNetwork.node[120] visitedPerTimestep ETV
vector 51 TaxiNetwork.node[116] visitedPerTimestep ETV
vector 52 TaxiNetwork.node[2] visitedPerTimestep ETV
vector 53 TaxiNetwork.node[12] visitedPerTimestep ETV
vector 54 TaxiNetwork.node[59] visitedPerTimestep ETV
vector 55 TaxiNetwork.node[102] visitedPerTimestep ETV
vector 56 TaxiNetwork.node[82] visitedPerTimestep ETV
vector 57 TaxiNetwork.node[24] visitedPerTimestep ETV
vector 58 TaxiNetwork.node[29] visitedPerTimestep ETV
vector 59 TaxiNetwork.node[27] visitedPerTimestep ETV
vector 60 TaxiNetwork.node[39] visitedPerTimestep ETV
vector 61 TaxiNetwork.node[101] visitedPerTimestep ETV
vector 62 TaxiNetwork.node[86] visitedPerTimestep ETV
vector 63 TaxiNetwork.node[19] visitedPerTimestep ETV
vector 64 TaxiNetwork.node[34] visitedPerTimestep ETV
vector 65 TaxiNetwork.node[74] visitedPerTimestep ETV
vector 66 TaxiNetwork.node[33] visitedPerTimestep ETV
vector 67 TaxiNetwork.node[104] visitedPerTimestep ETV
vector 68 TaxiNetwork.node[54] visitedPerTimestep ETV
vector 69 TaxiNetwork.node[55] visitedPerTimestep ETV
vector 70 TaxiNetwork.node[94] visitedPerTimestep ETV
vector 71 TaxiNetwork.node[14] visitedPerTimestep ETV
vector 72 TaxiNetwork.node[111] visitedPerTimestep ETV
vector 73 TaxiNetwork.node[139] visitedPerTimestep ETV
vector 74 TaxiNetwork.node[22] visitedPerTimestep ETV
vector 75 TaxiNetwork.node[37] visitedPerTimestep ETV
vector 76 TaxiNetwork.node[32] visitedPerTimestep ETV
vector 77 TaxiNetwork.node[40] visitedPerTimestep ETV
vector 78 TaxiNetwork.node[112] visitedPerTimestep ETV
vector 79 TaxiNetwork.node[140] visitedPerTimestep ETV
vector 80 TaxiNetwork.node[35] visitedPerTimestep ETV
vector 81 TaxiNetwork.node[66] visitedPerTimestep ETV
vector 82 TaxiNetwork.node[61] visitedPerTimestep ETV
vector 83 TaxiNetwork.node[133] visitedPerTimestep ETV
vector 84 TaxiNetwork.node[68] visitedPerTimestep ETV
vector 85 TaxiNetwork.node[130] visitedPerTimestep ETV
vector 86 TaxiNetwork.node[132] visitedPerTimestep ETV
vector 87 TaxiNetwork.node[62] visitedPerTimestep ETV
vector 88 TaxiNetwork.node[76] visitedPerTimestep ETV
vector 89 TaxiNetwork.node[75] visitedPerTimestep ETV
vector 90 TaxiNetwork.node[60] visitedPerTimestep ETV
vector 91 TaxiNetwork.node[69] visitedPerTimestep ETV
vector 92 TaxiNetwork.node[70] visitedPerTimestep ETV
vector 93 TaxiNetwork.node[79] visitedPerTimestep ETV
vector 94 TaxiNetwork.node[134] visitedPerTimestep ETV
vector 95 TaxiNetwork.node[128] visitedPerTimestep ETV
vector 96 TaxiNetwork.node[129] visitedPerTimestep ETV
vector 97 TaxiNetwork.node[18] visitedPerTimestep ETV
vector 98 TaxiNetwork.node[0] visitedPerTimestep ETV
vector 99 TaxiNetwork.node[52] visitedPerTimestep ETV
vector 100 TaxiNetwork.node[21] visitedPerTimestep ETV
vector 101 TaxiNetwork.node[95] visitedPerTimestep ETV
vector 102 TaxiNetwork.node[110] visitedPerTimestep ETV
vector 103 TaxiNetwork.node[105] visitedPerTimestep ETV
vector 104 TaxiNetwork.node[51] visitedPerTimestep ETV
vector 105 TaxiNetwork.node[56] visitedPerTimestep ETV
vector 106 TaxiNetwork.node[57] visitedPerTimestep ETV
vector 107 TaxiNetwork.node[67] visitedPerTimestep ETV
vector 108 TaxiNetwork.node[99] visitedPerTimestep ETV
vector 109 TaxiNetwork.node[106] visitedPerTimestep ETV
vector 110 TaxiNetwork.node[58] visitedPerTimestep ETV
vector 111 TaxiNetwork.node[126] visitedPerTimestep ETV
vector 112 TaxiNetwork.node[78] visitedPerTimestep ETV
vector 113 TaxiNetwork.node[143] visitedPerTimestep ETV
vector 114 TaxiNetwork.node[73] visitedPerTimestep ETV
vector 115 TaxiNetwork.node[72] visitedPerTimestep ETV
vector 116 TaxiNetwork.node[80] visitedPerTimestep ETV
vector 117 TaxiNetwork.node[124] visitedPerTimestep ETV
vector 118 TaxiNetwork.node[77] visitedPerTimestep ETV
vector 119 TaxiNetwork.node[113] visitedPerTimestep ETV
vector 120 TaxiNetwork.node[64] visitedPerTimestep ETV
vector 121 TaxiNetwork.node[71] visitedPerTimestep ETV
vector 122 TaxiNetwork.node[127] visitedPerTimestep ETV
vector 123 TaxiNetwork.node[107] visitedPerTimestep ETV
vector 124 TaxiNetwork.node[81] visitedPerTimestep ETV
vector 125 TaxiNetwork.node[144] visitedPerTimestep ETV
vector 126 TaxiNetwork.node[136] visitedPerTimestep ETV
vector 127 TaxiNetwork.node[28] visitedPerTimestep ETV
vector 128 TaxiNetwork.node[25] visitedPerTimestep ETV
vector 129 TaxiNetwork.node[23] visitedPerTimestep ETV
vector 130 TaxiNetwork.node[41] visitedPerTimestep ETV
vector 131 TaxiNetwork.node[98] visitedPerTimestep ETV
vector 132 TaxiNetwork.node[49] visitedPerTimestep ETV
vector 133 TaxiNetwork.node[50] visitedPerTimestep ETV
vector 134 TaxiNetwork.node[47] visitedPerTimestep ETV
vector 135 TaxiNetwork.node[135] visitedPerTimestep ETV
vector 136 TaxiNetwork.node[48] visitedPerTimestep ETV
0	16532 486 1 4512 0 0 39 1 143 4647 574773
1	17018 477 2 4544 0 0 39 2 143 4328 528662
2	17495 290 3 4528 0 0 24 3 143 2629 318055
3	17785 448 4 4320 0 0 37 4 140 4009 474749
4	18233 337 5 4588 0 0 27 5 143 3222 402338
5	18570 304 6 3584 0 0 25 6 140 2761 324711
6	18874 374 7 4156 0 0 30 7 140 3606 449590
7	19248 444 8 4596 0 0 36 8 145 4198 513596
8	19692 524 9 4400 0 0 42 9 140 4927 604723
9	20216 398 10 4524 0 0 32 10 143 3639 438939
10	20614 464 11 4584 0 0 35 11 143 3902 464832
11	21078 453 12 4572 0 0 34 12 143 3784 451356
12	21531 408 13 3588 0 0 30 13 140 3617 450927
13	21939 429 15 4244 0 0 32 14 140 3720 451098
14	22368 513 17 4552 0 0 39 15 143 4399 521961
15	22881 443 18 4260 0 0 33 16 140 3858 474922
16	23324 358 19 4336 0 0 27 17 140 3043 371441
17	23682 385 21 4312 0 0 29 18 140 3278 390578
18	24067 489 22 3548 0 0 36 19 140 4316 537142
19	24556 563 23 4300 0 0 42 20 140 4881 594397
20	25119 344 24 4352 0 0 26 21 140 2912 354362
21	25463 251 27 3876 0 0 19 22 140 2160 258994
22	25714 261 28 2652 0 0 20 23 131 2125 240109
23	25975 64 29 3856 0 0 5 24 140 432 50326
24	26039 146 30 4040 0 0 11 25 140 1291 162725
25	26185 145 32 3836 0 0 11 26 140 1236 148584
26	26330 284 35 4220 0 0 21 27 140 2466 303352
27	26614 418 37 4568 0 0 31 28 143 3665 450829
28	27032 403 39 4488 0 0 30 29 143 3546 433276
29	27435 334 41 4380 0 0 25 30 140 2895 346803
30	27769 330 42 4504 0 0 25 31 143 2805 333413
31	28099 418 43 4580 0 0 31 32 143 3652 445992
32	28517 364 44 4592 0 0 27 33 144 3200 395382
33	28881 552 46 4328 0 0 41 34 140 4896 599362
34	29433 240 47 3308 0 0 18 35 139 2063 249345
35	29673 375 49 4108 0 0 28 36 140 3298 401138
36	30048 439 50 3356 0 0 33 37 139 3730 435726
37	30487 455 52 2978 0 0 34 38 135 3876 459956
38	30942 438 53 3632 0 0 33 39 140 3779 456059
39	31380 430 54 4116 0 0 32 40 140 3785 462053
40	31810 477 55 4120 0 0 36 41 140 4113 488123
41	32287 101 58 2384 0 0 8 42 130 745 75599
42	32388 346 59 4252 0 0 26 43 140 2974 351814
43	32734 180 60 4236 0 0 14 44 140 1386 152602
44	32914 75 61 1102 0 0 6 45 121 521 49717
45	32989 210 63 3332 0 0 16 46 139 1670 188136
46	33199 324 65 4556 0 0 24 47 143 2882 357538
47	33523 283 67 4576 0 0 21 48 143 2478 304422
48	33806 268 69 4540 0 0 20 49 143 2340 285398
49	34074 132 71 4560 0 0 10 50 143 1142 136870
50	34206 463 72 4496 0 0 34 51 143 4124 509268
51	34669 307 73 4364 0 0 23 52 140 2700 325306
52	34976 322 78 2362 0 0 25 53 130 2676 294138
53	35298 331 81 4324 0 0 25 54 140 2832 335566
54	35629 66 84 2518 0 0 5 55 130 558 66330
55	35695 399 87 3296 0 0 30 56 139 3340 388572
56	36094 174 88 3368 0 0 13 57 139 1523 187263
57	36268 78 89 2758 0 0 6 58 131 629 70787
58	36346 175 90 3360 0 0 13 59 139 1536 186740
59	36521 25 91 1098 0 0 2 60 121 181 18241
60	36546 106 92 2638 0 0 8 61 131 868 100106
61	36652 378 94 4240 0 0 28 62 140 3361 412133
62	37030 510 97 4160 0 0 38 63 140 4525 550625
63	37540 336 100 4516 0 0 25 64 143 2927 356305
64	37876 106 104 3364 0 0 8 65 139 899 106593
65	37982 12 111 111 0 0 1 66 66 66 4356
66	37994 256 114 3324 0 0 19 67 139 2256 272624
67	38250 376 118 4268 0 0 28 68 140 3319 402857
68	38626 280 119 4404 0 0 21 69 140 2448 292426
69	38906 258 123 3288 0 0 19 70 139 2290 282248
70	39164 306 132 3440 0 0 23 71 140 2638 309712
71	39470 321 135 4500 0 0 24 72 143 2797 337817
72	39791 283 145 4372 0 0 21 73 140 2498 301854
73	40074 435 148 4480 0 0 32 74 143 3897 481057
74	40509 135 151 2878 0 0 10 75 132 1151 135539
75	40644 117 153 2880 0 0 9 76 132 931 100345
76	40761 244 163 2954 0 0 18 77 135 2161 262987
77	41005 162 166 2664 0 0 12 78 131 1393 164375
78	41167 217 174 4384 0 0 16 79 140 1934 237466
79	41384 367 185 4548 0 0 27 80 143 3333 417505
80	41751 173 189 2956 0 0 13 81 135 1502 176414
81	41924 101 195 1032 0 0 8 82 121 840 89802
82	42025 201 196 4060 0 0 15 83 140 1822 225970
83	42226 135 197 4044 0 0 10 84 140 1261 161955
84	42361 271 198 4076 0 0 20 85 140 2508 320366
85	42632 218 199 4332 0 0 16 86 140 1984 249574
86	42850 158 201 3704 0 0 12 87 140 1428 172484
87	43008 256 202 4012 0 0 19 88 140 2329 289169
88	43264 80 203 3944 0 0 6 89 140 739 92823
89	43344 149 204 3868 0 0 11 90 140 1385 177117
90	43493 121 205 4016 0 0 9 91 140 1111 140087
91	43614 176 211 3972 0 0 13 92 140 1635 208017
92	43790 163 212 4092 0 0 12 93 140 1533 198521
93	43953 203 214 4048 0 0 15 94 140 1898 243162
94	44156 80 215 2264 0 0 6 95 130 684 78752
95	44236 147 216 4096 0 0 11 96 140 1376 174202
96	44383 68 218 4068 0 0 5 97 140 620 77938
97	44451 381 226 3528 0 0 28 98 140 3396 415764
98	44832 376 276 4532 0 0 28 99 143 3395 416203
99	45208 302 327 4296 0 0 22 100 140 2707 336767
100	45510 73 390 2898 0 0 5 101 135 606 74460
101	45583 89 443 4080 0 0 6 102 140 773 100745
102	45672 265 445 4212 0 0 18 103 140 2287 293271
103	45937 177 450 4476 0 0 12 104 143 1533 198157
104	46114 44 451 4408 0 0 3 105 140 371 46501
105	46158 118 453 3564 0 0 8 106 140 996 124966
106	46276 160 456 4564 0 0 11 107 143 1403 180699
107	46436 73 500 4308 0 0 5 108 140 620 77446
108	46509 175 530 3908 0 0 12 109 140 1485 185035
109	46684 72 650 3560 0 0 5 110 140 615 76137
110	46756 58 663 2210 0 0 4 111 130 486 59274
111	46814 160 777 4024 0 0 11 112 140 1395 178199
112	46974 72 778 3760 0 0 5 113 140 613 75575
113	47046 116 779 3964 0 0 8 114 140 1024 131902
114	47162 162 780 3940 0 0 11 115 140 1433 187751
115	47324 102 781 3820 0 0 7 116 140 905 117721
116	47426 133 790 3988 0 0 9 117 140 1196 159650
117	47559 74 791 4084 0 0 5 118 140 649 84665
118	47633 102 827 3792 0 0 7 119 140 888 113224
119	47735 102 893 4204 0 0 7 120 140 902 116702
120	47837 220 916 4064 0 0 15 121 140 1928 248928
121	48057 30 1252 3808 0 0 2 122 140 262 34484
122	48087 30 1448 1460 0 0 2 123 125 248 30754
123	48117 45 1450 1458 0 0 3 124 125 374 46626
124	48162 30 1452 1456 0 0 2 125 125 250 31250
125	48192 30 2048 4468 0 0 2 127 143 270 36578
126	48222 15 2792 2792 0 0 1 132 132 132 17424
127	48237 45 2884 2896 0 0 3 132 135 400 53338
128	48282 30 2886 2894 0 0 2 133 135 268 35914
129	48312 15 2890 2890 0 0 1 134 134 134 17956
130	48327 15 2892 2892 0 0 1 135 135 135 18225
131	48342 30 4416 4472 0 0 2 140 143 283 40049
132	48372 45 4420 4448 0 0 3 141 143 425 60211
133	48417 30 4424 4432 0 0 2 141 141 282 39762
134	48447 45 4436 4464 0 0 3 142 143 428 61062
135	48492 30 4440 4456 0 0 2 143 143 286 40898
136	48522 30 4452 4460 0 0 2 143 143 286 40898

