file 50004 1756984400                                           
version 3
run General-297-20250904-14:13:20-15699
attr configname General
attr datetime 20250904-14:13:20
attr datetimef 20250904-141320
attr experiment General
attr inifile omnetpp.ini
attr iterationvars ""
attr iterationvarsd ""
attr iterationvarsf ""
attr measurement ""
attr network TaxiNetwork
attr processid 15699
attr repetition 297
attr replication #297
attr resultdir results
attr runnumber 297
attr seedset 297
config network TaxiNetwork
config seed-set 297
config num-rngs 1
config sim-time-limit 10s
config repeat 500
config *.numWalkers 1
config *.enableDuplication true
config *.rc 700
config **.node[0].xCor 2933
config **.node[0].yCor 2747
config **.node[1].xCor 2919
config **.node[1].yCor 2817
config **.node[2].xCor 2910
config **.node[2].yCor 2861
config **.node[3].xCor 2429
config **.node[3].yCor 2851
config **.node[4].xCor 2908
config **.node[4].yCor 2714
config **.node[5].xCor 2606
config **.node[5].yCor 2722
config **.node[6].xCor 2575
config **.node[6].yCor 2753
config **.node[7].xCor 2654
config **.node[7].yCor 2513
config **.node[8].xCor 2773
config **.node[8].yCor 2580
config **.node[9].xCor 3043
config **.node[9].yCor 2780
config **.node[10].xCor 3020
config **.node[10].yCor 2813
config **.node[11].xCor 2599
config **.node[11].yCor 2300
config **.node[12].xCor 2917
config **.node[12].yCor 2698
config **.node[13].xCor 2625
config **.node[13].yCor 2641
config **.node[14].xCor 2604
config **.node[14].yCor 2790
config **.node[15].xCor 2786
config **.node[15].yCor 3082
config **.node[16].xCor 2603
config **.node[16].yCor 2802
config **.node[17].xCor 2637
config **.node[17].yCor 2869
config **.node[18].xCor 2675
config **.node[18].yCor 2955
config **.node[19].xCor 2845
config **.node[19].yCor 2937
config **.node[20].xCor 2860
config **.node[20].yCor 2888
config **.node[21].xCor 2843
config **.node[21].yCor 4158
config **.node[22].xCor 2852
config **.node[22].yCor 4017
config **.node[23].xCor 2892
config **.node[23].yCor 4961
config **.node[24].xCor 2313
config **.node[24].yCor 3993
config **.node[25].xCor 2891
config **.node[25].yCor 4959
config **.node[26].xCor 2370
config **.node[26].yCor 4050
config **.node[27].xCor 2788
config **.node[27].yCor 3958
config **.node[28].xCor 2819
config **.node[28].yCor 4428
config **.node[29].xCor 2790
config **.node[29].yCor 3761
config **.node[30].xCor 2809
config **.node[30].yCor 2908
config **.node[31].xCor 2919
config **.node[31].yCor 3575
config **.node[32].xCor 2946
config **.node[32].yCor 3466
config **.node[33].xCor 2911
config **.node[33].yCor 3453
config **.node[34].xCor 2370
config **.node[34].yCor 3656
config **.node[35].xCor 2438
config **.node[35].yCor 3738
config **.node[36].xCor 2737
config **.node[36].yCor 3570
config **.node[37].xCor 2921
config **.node[37].yCor 3698
config **.node[38].xCor 2907
config **.node[38].yCor 5197
config **.node[39].xCor 2860
config **.node[39].yCor 3852
config **.node[40].xCor 2927
config **.node[40].yCor 3684
config **.node[41].xCor 3023
config **.node[41].yCor 5313
config **.node[42].xCor 3220
config **.node[42].yCor 5811
config **.node[43].xCor 3432
config **.node[43].yCor 5715
config **.node[44].xCor 2754
config **.node[44].yCor 2463
config **.node[45].xCor 2646
config **.node[45].yCor 2673
config **.node[46].xCor 3051
config **.node[46].yCor 2792
config **.node[47].xCor 1666
config **.node[47].yCor 3697
config **.node[48].xCor 1662
config **.node[48].yCor 3694
config **.node[49].xCor 1664
config **.node[49].yCor 3667
config **.node[50].xCor 1660
config **.node[50].yCor 3664
config **.node[51].xCor 1710
config **.node[51].yCor 3573
config **.node[52].xCor 2082
config **.node[52].yCor 2650
config **.node[53].xCor 2086
config **.node[53].yCor 2657
config **.node[54].xCor 2257
config **.node[54].yCor 3232
config **.node[55].xCor 2258
config **.node[55].yCor 3225
config **.node[56].xCor 1926
config **.node[56].yCor 2570
config **.node[57].xCor 1926
config **.node[57].yCor 2576
config **.node[58].xCor 2104
config **.node[58].yCor 1758
config **.node[59].xCor 1957
config **.node[59].yCor 1826
config **.node[60].xCor 3473
config **.node[60].yCor 1523
config **.node[61].xCor 3335
config **.node[61].yCor 1726
config **.node[62].xCor 3478
config **.node[62].yCor 1517
config **.node[63].xCor 3386
config **.node[63].yCor 2119
config **.node[64].xCor 3474
config **.node[64].yCor 1762
config **.node[65].xCor 3797
config **.node[65].yCor 2099
config **.node[66].xCor 3642
config **.node[66].yCor 2136
config **.node[67].xCor 3481
config **.node[67].yCor 2334
config **.node[68].xCor 3088
config **.node[68].yCor 1505
config **.node[69].xCor 3037
config **.node[69].yCor 1693
config **.node[70].xCor 3026
config **.node[70].yCor 1700
config **.node[71].xCor 3019
config **.node[71].yCor 669
config **.node[72].xCor 3513
config **.node[72].yCor 1358
config **.node[73].xCor 3545
config **.node[73].yCor 1230
config **.node[74].xCor 4228
config **.node[74].yCor 4220
config **.node[75].xCor 3379
config **.node[75].yCor 1207
config **.node[76].xCor 3596
config **.node[76].yCor 963
config **.node[77].xCor 3637
config **.node[77].yCor 1188
config **.node[78].xCor 3759
config **.node[78].yCor 1030
config **.node[79].xCor 2918
config **.node[79].yCor 1455
config **.node[80].xCor 2711
config **.node[80].yCor 1297
config **.node[81].xCor 439
config **.node[81].yCor 1623
config **.node[82].xCor 2857
config **.node[82].yCor 3581
config **.node[83].xCor 2858
config **.node[83].yCor 3584
config **.node[84].xCor 2999
config **.node[84].yCor 2636
config **.node[85].xCor 2905
config **.node[85].yCor 2778
config **.node[86].xCor 2653
config **.node[86].yCor 2845
config **.node[87].xCor 2864
config **.node[87].yCor 2836
config **.node[88].xCor 2426
config **.node[88].yCor 2892
config **.node[89].xCor 2964
config **.node[89].yCor 2804
config **.node[90].xCor 2586
config **.node[90].yCor 3135
config **.node[91].xCor 2864
config **.node[91].yCor 2980
config **.node[92].xCor 2527
config **.node[92].yCor 3219
config **.node[93].xCor 2863
config **.node[93].yCor 3142
config **.node[94].xCor 2485
config **.node[94].yCor 3269
config **.node[95].xCor 2653
config **.node[95].yCor 1065
config **.node[96].xCor 4062
config **.node[96].yCor 400
config **.node[97].xCor 5762
config **.node[97].yCor 3023
config **.node[98].xCor 1414
config **.node[98].yCor 3461
config **.node[99].xCor 2911
config **.node[99].yCor 1737
config **.node[100].xCor 2595
config **.node[100].yCor 2299
config **.node[101].xCor 2702
config **.node[101].yCor 3419
config **.node[102].xCor 2813
config **.node[102].yCor 3307
config **.node[103].xCor 2638
config **.node[103].yCor 2258
config **.node[104].xCor 2590
config **.node[104].yCor 3125
config **.node[105].xCor 1856
config **.node[105].yCor 2990
config **.node[106].xCor 1894
config **.node[106].yCor 2239
config **.node[107].xCor 383
config **.node[107].yCor 1251
config **.node[108].xCor 3447
config **.node[108].yCor 5489
config **.node[109].xCor 3450
config **.node[109].yCor 5697
config **.node[110].xCor 2719
config **.node[110].yCor 1920
config **.node[111].xCor 2085
config **.node[111].yCor 2389
config **.node[112].xCor 1910
config **.node[112].yCor 2548
config **.node[113].xCor 2069
config **.node[113].yCor 2050
config **.node[114].xCor 2184
config **.node[114].yCor 2209
config **.node[115].xCor 2278
config **.node[115].yCor 2390
config **.node[116].xCor 2249
config **.node[116].yCor 2299
config **.node[117].xCor 2356
config **.node[117].yCor 2303
config **.node[118].xCor 2192
config **.node[118].yCor 2475
config **.node[119].xCor 1720
config **.node[119].yCor 2911
config **.node[120].xCor 2400
config **.node[120].yCor 2887
config **.node[121].xCor 3344
config **.node[121].yCor 1890
config **.node[122].xCor 3136
config **.node[122].yCor 2418
config **.node[123].xCor 3243
config **.node[123].yCor 2525
config **.node[124].xCor 2396
config **.node[124].yCor 1267
config **.node[125].xCor 467
config **.node[125].yCor 1875
config **.node[126].xCor 3506
config **.node[126].yCor 1221
config **.node[127].xCor 1034
config **.node[127].yCor 1474
config **.node[128].xCor 2908
config **.node[128].yCor 1784
config **.node[129].xCor 2876
config **.node[129].yCor 1761
config **.node[130].xCor 2849
config **.node[130].yCor 1795
config **.node[131].xCor 3029
config **.node[131].yCor 1859
config **.node[132].xCor 2924
config **.node[132].yCor 1848
config **.node[133].xCor 3493
config **.node[133].yCor 1559
config **.node[134].xCor 2760
config **.node[134].yCor 1761
config **.node[135].xCor 1644
config **.node[135].yCor 3755
config **.node[136].xCor 1463
config **.node[136].yCor 3432
config **.node[137].xCor 2595
config **.node[137].yCor 2849
config **.node[138].xCor 2581
config **.node[138].yCor 2867
config **.node[139].xCor 2524
config **.node[139].yCor 2911
config **.node[140].xCor 2570
config **.node[140].yCor 2924
config **.node[141].xCor 2676
config **.node[141].yCor 2890
config **.node[142].xCor 2666
config **.node[142].yCor 2876
config **.node[143].xCor 3735
config **.node[143].yCor 1726
config **.node[144].xCor 1637
config **.node[144].yCor 3438

vector 0 TaxiNetwork.node[6] visitedPerTimestep ETV
vector 1 TaxiNetwork.node[114] visitedPerTimestep ETV
vector 2 TaxiNetwork.node[117] visitedPerTimestep ETV
vector 3 TaxiNetwork.node[7] visitedPerTimestep ETV
vector 4 TaxiNetwork.node[137] visitedPerTimestep ETV
vector 5 TaxiNetwork.node[15] visitedPerTimestep ETV
vector 6 TaxiNetwork.node[140] visitedPerTimestep ETV
vector 7 TaxiNetwork.node[0] visitedPerTimestep ETV
vector 8 TaxiNetwork.node[102] visitedPerTimestep ETV
vector 9 TaxiNetwork.node[83] visitedPerTimestep ETV
vector 10 TaxiNetwork.node[93] visitedPerTimestep ETV
vector 11 TaxiNetwork.node[18] visitedPerTimestep ETV
vector 12 TaxiNetwork.node[92] visitedPerTimestep ETV
vector 13 TaxiNetwork.node[17] visitedPerTimestep ETV
vector 14 TaxiNetwork.node[13] visitedPerTimestep ETV
vector 15 TaxiNetwork.node[30] visitedPerTimestep ETV
vector 16 TaxiNetwork.node[20] visitedPerTimestep ETV
vector 17 TaxiNetwork.node[10] visitedPerTimestep ETV
vector 18 TaxiNetwork.node[104] visitedPerTimestep ETV
vector 19 TaxiNetwork.node[142] visitedPerTimestep ETV
vector 20 TaxiNetwork.node[12] visitedPerTimestep ETV
vector 21 TaxiNetwork.node[14] visitedPerTimestep ETV
vector 22 TaxiNetwork.node[53] visitedPerTimestep ETV
vector 23 TaxiNetwork.node[120] visitedPerTimestep ETV
vector 24 TaxiNetwork.node[8] visitedPerTimestep ETV
vector 25 TaxiNetwork.node[9] visitedPerTimestep ETV
vector 26 TaxiNetwork.node[86] visitedPerTimestep ETV
vector 27 TaxiNetwork.node[45] visitedPerTimestep ETV
vector 28 TaxiNetwork.node[91] visitedPerTimestep ETV
vector 29 TaxiNetwork.node[5] visitedPerTimestep ETV
vector 30 TaxiNetwork.node[89] visitedPerTimestep ETV
vector 31 TaxiNetwork.node[1] visitedPerTimestep ETV
vector 32 TaxiNetwork.node[11] visitedPerTimestep ETV
vector 33 TaxiNetwork.node[118] visitedPerTimestep ETV
vector 34 TaxiNetwork.node[106] visitedPerTimestep ETV
vector 35 TaxiNetwork.node[59] visitedPerTimestep ETV
vector 36 TaxiNetwork.node[112] visitedPerTimestep ETV
vector 37 TaxiNetwork.node[56] visitedPerTimestep ETV
vector 38 TaxiNetwork.node[113] visitedPerTimestep ETV
vector 39 TaxiNetwork.node[103] visitedPerTimestep ETV
vector 40 TaxiNetwork.node[100] visitedPerTimestep ETV
vector 41 TaxiNetwork.node[110] visitedPerTimestep ETV
vector 42 TaxiNetwork.node[141] visitedPerTimestep ETV
vector 43 TaxiNetwork.node[16] visitedPerTimestep ETV
vector 44 TaxiNetwork.node[138] visitedPerTimestep ETV
vector 45 TaxiNetwork.node[90] visitedPerTimestep ETV
vector 46 TaxiNetwork.node[31] visitedPerTimestep ETV
vector 47 TaxiNetwork.node[19] visitedPerTimestep ETV
vector 48 TaxiNetwork.node[46] visitedPerTimestep ETV
vector 49 TaxiNetwork.node[35] visitedPerTimestep ETV
vector 50 TaxiNetwork.node[33] visitedPerTimestep ETV
vector 51 TaxiNetwork.node[39] visitedPerTimestep ETV
vector 52 TaxiNetwork.node[4] visitedPerTimestep ETV
vector 53 TaxiNetwork.node[29] visitedPerTimestep ETV
vector 54 TaxiNetwork.node[101] visitedPerTimestep ETV
vector 55 TaxiNetwork.node[87] visitedPerTimestep ETV
vector 56 TaxiNetwork.node[40] visitedPerTimestep ETV
vector 57 TaxiNetwork.node[123] visitedPerTimestep ETV
vector 58 TaxiNetwork.node[63] visitedPerTimestep ETV
vector 59 TaxiNetwork.node[69] visitedPerTimestep ETV
vector 60 TaxiNetwork.node[115] visitedPerTimestep ETV
vector 61 TaxiNetwork.node[52] visitedPerTimestep ETV
vector 62 TaxiNetwork.node[85] visitedPerTimestep ETV
vector 63 TaxiNetwork.node[67] visitedPerTimestep ETV
vector 64 TaxiNetwork.node[143] visitedPerTimestep ETV
vector 65 TaxiNetwork.node[131] visitedPerTimestep ETV
vector 66 TaxiNetwork.node[68] visitedPerTimestep ETV
vector 67 TaxiNetwork.node[130] visitedPerTimestep ETV
vector 68 TaxiNetwork.node[61] visitedPerTimestep ETV
vector 69 TaxiNetwork.node[77] visitedPerTimestep ETV
vector 70 TaxiNetwork.node[72] visitedPerTimestep ETV
vector 71 TaxiNetwork.node[126] visitedPerTimestep ETV
vector 72 TaxiNetwork.node[78] visitedPerTimestep ETV
vector 73 TaxiNetwork.node[60] visitedPerTimestep ETV
vector 74 TaxiNetwork.node[66] visitedPerTimestep ETV
vector 75 TaxiNetwork.node[64] visitedPerTimestep ETV
vector 76 TaxiNetwork.node[121] visitedPerTimestep ETV
vector 77 TaxiNetwork.node[76] visitedPerTimestep ETV
vector 78 TaxiNetwork.node[62] visitedPerTimestep ETV
vector 79 TaxiNetwork.node[65] visitedPerTimestep ETV
vector 80 TaxiNetwork.node[133] visitedPerTimestep ETV
vector 81 TaxiNetwork.node[70] visitedPerTimestep ETV
vector 82 TaxiNetwork.node[99] visitedPerTimestep ETV
vector 83 TaxiNetwork.node[80] visitedPerTimestep ETV
vector 84 TaxiNetwork.node[128] visitedPerTimestep ETV
vector 85 TaxiNetwork.node[73] visitedPerTimestep ETV
vector 86 TaxiNetwork.node[75] visitedPerTimestep ETV
vector 87 TaxiNetwork.node[71] visitedPerTimestep ETV
vector 88 TaxiNetwork.node[84] visitedPerTimestep ETV
vector 89 TaxiNetwork.node[36] visitedPerTimestep ETV
vector 90 TaxiNetwork.node[122] visitedPerTimestep ETV
vector 91 TaxiNetwork.node[2] visitedPerTimestep ETV
vector 92 TaxiNetwork.node[44] visitedPerTimestep ETV
vector 93 TaxiNetwork.node[24] visitedPerTimestep ETV
vector 94 TaxiNetwork.node[3] visitedPerTimestep ETV
vector 95 TaxiNetwork.node[54] visitedPerTimestep ETV
vector 96 TaxiNetwork.node[139] visitedPerTimestep ETV
vector 97 TaxiNetwork.node[94] visitedPerTimestep ETV
vector 98 TaxiNetwork.node[82] visitedPerTimestep ETV
vector 99 TaxiNetwork.node[132] visitedPerTimestep ETV
vector 100 TaxiNetwork.node[111] visitedPerTimestep ETV
vector 101 TaxiNetwork.node[129] visitedPerTimestep ETV
vector 102 TaxiNetwork.node[55] visitedPerTimestep ETV
vector 103 TaxiNetwork.node[37] visitedPerTimestep ETV
vector 104 TaxiNetwork.node[34] visitedPerTimestep ETV
vector 105 TaxiNetwork.node[32] visitedPerTimestep ETV
vector 106 TaxiNetwork.node[79] visitedPerTimestep ETV
vector 107 TaxiNetwork.node[95] visitedPerTimestep ETV
vector 108 TaxiNetwork.node[134] visitedPerTimestep ETV
vector 109 TaxiNetwork.node[124] visitedPerTimestep ETV
vector 110 TaxiNetwork.node[127] visitedPerTimestep ETV
vector 111 TaxiNetwork.node[125] visitedPerTimestep ETV
vector 112 TaxiNetwork.node[107] visitedPerTimestep ETV
vector 113 TaxiNetwork.node[27] visitedPerTimestep ETV
vector 114 TaxiNetwork.node[22] visitedPerTimestep ETV
vector 115 TaxiNetwork.node[26] visitedPerTimestep ETV
vector 116 TaxiNetwork.node[88] visitedPerTimestep ETV
vector 117 TaxiNetwork.node[119] visitedPerTimestep ETV
vector 118 TaxiNetwork.node[116] visitedPerTimestep ETV
vector 119 TaxiNetwork.node[105] visitedPerTimestep ETV
vector 120 TaxiNetwork.node[74] visitedPerTimestep ETV
vector 121 TaxiNetwork.node[108] visitedPerTimestep ETV
vector 122 TaxiNetwork.node[41] visitedPerTimestep ETV
vector 123 TaxiNetwork.node[109] visitedPerTimestep ETV
vector 124 TaxiNetwork.node[42] visitedPerTimestep ETV
vector 125 TaxiNetwork.node[38] visitedPerTimestep ETV
vector 126 TaxiNetwork.node[43] visitedPerTimestep ETV
vector 127 TaxiNetwork.node[25] visitedPerTimestep ETV
vector 128 TaxiNetwork.node[23] visitedPerTimestep ETV
vector 129 TaxiNetwork.node[28] visitedPerTimestep ETV
vector 130 TaxiNetwork.node[144] visitedPerTimestep ETV
vector 131 TaxiNetwork.node[51] visitedPerTimestep ETV
vector 132 TaxiNetwork.node[21] visitedPerTimestep ETV
vector 133 TaxiNetwork.node[96] visitedPerTimestep ETV
vector 134 TaxiNetwork.node[58] visitedPerTimestep ETV
vector 135 TaxiNetwork.node[57] visitedPerTimestep ETV
vector 136 TaxiNetwork.node[81] visitedPerTimestep ETV
vector 137 TaxiNetwork.node[136] visitedPerTimestep ETV
vector 138 TaxiNetwork.node[98] visitedPerTimestep ETV
0	16644 336 1 4092 0 0 27 1 144 3427 456091
1	16980 182 2 4424 0 0 15 2 144 1783 237251
2	17162 329 3 4420 0 0 27 3 144 3209 418811
3	17491 399 4 4504 0 0 32 4 144 4062 536204
4	17890 419 5 4900 0 0 34 5 144 4182 551756
5	18309 267 6 4732 0 0 22 6 144 2596 335978
6	18576 346 7 4224 0 0 28 7 144 3512 462488
7	18922 330 9 3884 0 0 27 8 144 3272 422520
8	19252 295 10 4772 0 0 24 9 144 2863 372189
9	19547 224 11 4876 0 0 18 10 144 2156 292124
10	19771 324 12 4312 0 0 24 11 144 2948 388386
11	20095 415 13 4864 0 0 31 12 144 3931 517423
12	20510 332 14 4788 0 0 25 13 144 3002 390694
13	20842 476 15 4908 0 0 35 14 144 4557 618331
14	21318 507 16 4360 0 0 38 15 144 4650 597466
15	21825 349 17 4604 0 0 26 16 144 3267 432341
16	22174 467 20 4816 0 0 35 17 144 4300 561322
17	22641 307 21 4764 0 0 23 18 144 2778 356806
18	22948 432 22 4348 0 0 32 19 144 4090 544854
19	23380 334 23 4656 0 0 25 20 144 3129 414445
20	23714 348 24 4840 0 0 26 21 144 3180 418744
21	24062 283 25 4716 0 0 21 22 144 2620 348210
22	24345 241 26 4400 0 0 18 23 144 2230 294198
23	24586 506 27 4784 0 0 37 24 144 4890 661474
24	25092 265 29 4412 0 0 20 25 144 2386 302812
25	25357 353 30 4792 0 0 26 26 144 3318 442684
26	25710 588 31 4848 0 0 44 27 144 5488 712764
27	26298 469 32 4500 0 0 35 28 144 4399 577417
28	26767 369 34 4872 0 0 27 29 144 3563 483823
29	27136 417 36 4828 0 0 31 30 144 3937 515219
30	27553 490 37 4824 0 0 36 31 144 4639 620867
31	28043 326 38 4668 0 0 24 32 144 3095 413927
32	28369 253 40 4108 0 0 19 33 144 2357 311051
33	28622 188 41 4720 0 0 14 34 144 1749 229069
34	28810 187 43 4428 0 0 14 35 144 1694 223452
35	28997 122 44 4100 0 0 9 36 144 1141 154023
36	29119 201 46 3940 0 0 15 37 144 1923 255799
37	29320 80 47 3984 0 0 6 38 144 732 97864
38	29400 215 48 3428 0 0 16 39 144 1958 256312
39	29615 526 49 4744 0 0 39 40 144 4934 645574
40	30141 312 54 4856 0 0 23 41 144 2918 381602
41	30453 219 57 2572 0 0 17 42 137 1808 205586
42	30672 344 59 4508 0 0 26 43 144 3140 395728
43	31016 481 61 4916 0 0 36 44 144 4373 560847
44	31497 243 62 4780 0 0 18 45 144 2234 292070
45	31740 379 66 3692 0 0 28 46 144 3633 481457
46	32119 177 67 4892 0 0 13 47 144 1708 232324
47	32296 421 68 4896 0 0 31 48 144 4064 544914
48	32717 339 71 4680 0 0 25 49 144 3267 436673
49	33056 175 74 4572 0 0 13 50 144 1706 231708
50	33231 350 75 4752 0 0 26 51 144 3388 455882
51	33581 109 76 4704 0 0 8 52 144 1029 139169
52	33690 448 79 4844 0 0 33 53 144 4242 557604
53	34138 188 81 4880 0 0 14 54 144 1797 238045
54	34326 441 82 4328 0 0 33 55 144 4184 547244
55	34767 382 84 4796 0 0 28 56 144 3706 498914
56	35149 202 86 4888 0 0 15 57 144 1939 259131
57	35351 281 91 4660 0 0 21 58 144 2655 348159
58	35632 216 92 2584 0 0 16 59 137 2036 265626
59	35848 235 93 2576 0 0 18 60 137 2081 250603
60	36083 268 95 4832 0 0 20 61 144 2559 335037
61	36351 380 100 4392 0 0 28 62 144 3684 493190
62	36731 412 103 4332 0 0 30 63 144 3977 534363
63	37143 171 110 3880 0 0 13 64 144 1530 188756
64	37314 237 111 2668 0 0 18 65 137 2066 249292
65	37551 295 113 2656 0 0 22 66 137 2738 348816
66	37846 309 114 4464 0 0 23 67 144 2793 348897
67	38155 231 115 4452 0 0 17 68 144 2184 286484
68	38386 308 117 2664 0 0 23 69 137 2798 350062
69	38694 133 119 2676 0 0 10 70 137 1145 137129
70	38827 146 120 2646 0 0 11 71 137 1304 161340
71	38973 174 122 4488 0 0 13 72 144 1571 196463
72	39147 117 123 2644 0 0 9 73 137 1070 130816
73	39264 294 124 2674 0 0 22 74 137 2640 328516
74	39558 105 127 2672 0 0 8 75 137 963 119607
75	39663 310 128 2658 0 0 23 76 137 2961 387061
76	39973 228 129 4492 0 0 17 77 144 2154 280986
77	40201 196 132 2118 0 0 15 78 137 1707 201525
78	40397 236 133 4456 0 0 18 79 144 2063 244971
79	40633 76 134 2666 0 0 6 80 137 633 69927
80	40709 264 138 3392 0 0 20 81 144 2389 294965
81	40973 163 139 2638 0 0 12 82 137 1529 198175
82	41136 212 142 2662 0 0 16 83 137 1947 241409
83	41348 251 143 4476 0 0 19 84 144 2308 286208
84	41599 176 144 2682 0 0 13 85 137 1632 208714
85	41775 181 153 2678 0 0 14 86 137 1549 176983
86	41956 174 162 2064 0 0 13 87 137 1621 205749
87	42130 80 163 4472 0 0 6 88 144 748 95578
88	42210 322 173 3832 0 0 24 89 144 2972 376560
89	42532 243 188 4696 0 0 18 90 144 2371 316667
90	42775 298 190 4740 0 0 22 91 144 2789 360275
91	43073 313 191 4688 0 0 23 92 144 3018 401868
92	43386 494 196 3976 0 0 37 93 144 4746 615996
93	43880 134 206 4584 0 0 10 94 144 1292 169882
94	44014 474 211 4208 0 0 35 95 144 4571 603205
95	44488 285 212 4920 0 0 21 96 145 2795 375939
96	44773 411 222 4608 0 0 30 97 144 4017 542129
97	45184 259 230 4620 0 0 19 98 144 2520 336748
98	45443 230 252 4616 0 0 17 99 144 2250 301770
99	45673 189 275 3412 0 0 14 100 144 1727 216751
100	45862 277 303 4104 0 0 19 101 144 2485 327655
101	46139 130 324 2054 0 0 9 102 137 1131 143849
102	46269 319 340 4628 0 0 22 103 144 2862 375990
103	46588 206 360 4588 0 0 14 104 144 1863 249591
104	46794 204 361 4552 0 0 14 105 144 1857 248747
105	46998 234 365 4820 0 0 16 106 144 2180 298840
106	47232 178 374 4484 0 0 12 107 144 1601 215339
107	47410 103 375 4468 0 0 7 108 144 913 120505
108	47513 88 405 4480 0 0 6 109 144 780 102718
109	47601 88 415 4436 0 0 6 110 144 797 106549
110	47689 58 446 2052 0 0 4 111 137 497 62355
111	47747 29 447 2050 0 0 2 112 137 249 31313
112	47776 14 448 448 0 0 1 113 113 113 12769
113	47790 102 481 4884 0 0 7 114 144 951 129887
114	47892 161 483 4560 0 0 11 115 144 1522 211446
115	48053 146 484 4148 0 0 10 116 144 1380 191222
116	48199 532 505 4308 0 0 36 117 144 4824 648634
117	48731 88 545 3936 0 0 6 118 144 817 111801
118	48819 234 594 4096 0 0 16 119 144 2121 282183
119	49053 14 597 597 0 0 1 120 120 120 14400
120	49067 73 638 3092 0 0 5 121 140 660 87364
121	49140 98 639 663 0 0 7 122 127 883 111405
122	49238 42 640 652 0 0 3 123 127 376 47134
123	49280 70 641 661 0 0 5 124 127 629 79135
124	49350 70 642 664 0 0 5 125 127 631 79637
125	49420 56 645 668 0 0 4 126 129 509 64775
126	49476 42 649 662 0 0 3 127 127 381 48387
127	49518 14 666 666 0 0 1 128 128 128 16384
128	49532 28 667 669 0 0 2 129 129 258 33282
129	49560 29 670 3740 0 0 2 130 144 274 37636
130	49589 14 700 700 0 0 1 131 131 131 17161
131	49603 29 701 3924 0 0 2 132 144 276 38160
132	49632 163 777 4700 0 0 11 133 144 1547 217795
133	49795 14 837 837 0 0 1 134 134 134 17956
134	49809 59 915 4432 0 0 4 135 144 558 77922
135	49868 90 1170 3628 0 0 6 136 144 833 115729
136	49958 15 2048 2048 0 0 1 137 137 137 18769
137	49973 15 3928 3928 0 0 1 144 144 144 20736
138	49988 15 3932 3932 0 0 1 144 144 144 20736

