version 3
run General-427-20250904-14:13:24-15916
attr configname General
attr datetime 20250904-14:13:24
attr datetimef 20250904-141324
attr experiment General
attr inifile omnetpp.ini
attr iterationvars ""
attr iterationvarsd ""
attr iterationvarsf ""
attr measurement ""
attr network TaxiNetwork
attr processid 15916
attr repetition 427
attr replication #427
attr resultdir results
attr runnumber 427
attr seedset 427
config network TaxiNetwork
config seed-set 427
config num-rngs 1
config sim-time-limit 10s
config repeat 500
config *.numWalkers 1
config *.enableDuplication true
config *.rc 700
config **.node[0].xCor 2933
config **.node[0].yCor 2747
config **.node[1].xCor 2919
config **.node[1].yCor 2817
config **.node[2].xCor 2910
config **.node[2].yCor 2861
config **.node[3].xCor 2429
config **.node[3].yCor 2851
config **.node[4].xCor 2908
config **.node[4].yCor 2714
config **.node[5].xCor 2606
config **.node[5].yCor 2722
config **.node[6].xCor 2575
config **.node[6].yCor 2753
config **.node[7].xCor 2654
config **.node[7].yCor 2513
config **.node[8].xCor 2773
config **.node[8].yCor 2580
config **.node[9].xCor 3043
config **.node[9].yCor 2780
config **.node[10].xCor 3020
config **.node[10].yCor 2813
config **.node[11].xCor 2599
config **.node[11].yCor 2300
config **.node[12].xCor 2917
config **.node[12].yCor 2698
config **.node[13].xCor 2625
config **.node[13].yCor 2641
config **.node[14].xCor 2604
config **.node[14].yCor 2790
config **.node[15].xCor 2786
config **.node[15].yCor 3082
config **.node[16].xCor 2603
config **.node[16].yCor 2802
config **.node[17].xCor 2637
config **.node[17].yCor 2869
config **.node[18].xCor 2675
config **.node[18].yCor 2955
config **.node[19].xCor 2845
config **.node[19].yCor 2937
config **.node[20].xCor 2860
config **.node[20].yCor 2888
config **.node[21].xCor 2843
config **.node[21].yCor 4158
config **.node[22].xCor 2852
config **.node[22].yCor 4017
config **.node[23].xCor 2892
config **.node[23].yCor 4961
config **.node[24].xCor 2313
config **.node[24].yCor 3993
config **.node[25].xCor 2891
config **.node[25].yCor 4959
config **.node[26].xCor 2370
config **.node[26].yCor 4050
config **.node[27].xCor 2788
config **.node[27].yCor 3958
config **.node[28].xCor 2819
config **.node[28].yCor 4428
config **.node[29].xCor 2790
config **.node[29].yCor 3761
config **.node[30].xCor 2809
config **.node[30].yCor 2908
config **.node[31].xCor 2919
config **.node[31].yCor 3575
config **.node[32].xCor 2946
config **.node[32].yCor 3466
config **.node[33].xCor 2911
config **.node[33].yCor 3453
config **.node[34].xCor 2370
config **.node[34].yCor 3656
config **.node[35].xCor 2438
config **.node[35].yCor 3738
config **.node[36].xCor 2737
config **.node[36].yCor 3570
config **.node[37].xCor 2921
config **.node[37].yCor 3698
config **.node[38].xCor 2907
config **.node[38].yCor 5197
config **.node[39].xCor 2860
config **.node[39].yCor 3852
config **.node[40].xCor 2927
config **.node[40].yCor 3684
config **.node[41].xCor 3023
config **.node[41].yCor 5313
config **.node[42].xCor 3220
config **.node[42].yCor 5811
config **.node[43].xCor 3432
config **.node[43].yCor 5715
config **.node[44].xCor 2754
config **.node[44].yCor 2463
config **.node[45].xCor 2646
config **.node[45].yCor 2673
config **.node[46].xCor 3051
config **.node[46].yCor 2792
config **.node[47].xCor 1666
config **.node[47].yCor 3697
config **.node[48].xCor 1662
config **.node[48].yCor 3694
config **.node[49].xCor 1664
config **.node[49].yCor 3667
config **.node[50].xCor 1660
config **.node[50].yCor 3664
config **.node[51].xCor 1710
config **.node[51].yCor 3573
config **.node[52].xCor 2082
config **.node[52].yCor 2650
config **.node[53].xCor 2086
config **.node[53].yCor 2657
config **.node[54].xCor 2257
config **.node[54].yCor 3232
config **.node[55].xCor 2258
config **.node[55].yCor 3225
config **.node[56].xCor 1926
config **.node[56].yCor 2570
config **.node[57].xCor 1926
config **.node[57].yCor 2576
config **.node[58].xCor 2104
config **.node[58].yCor 1758
config **.node[59].xCor 1957
config **.node[59].yCor 1826
config **.node[60].xCor 3473
config **.node[60].yCor 1523
config **.node[61].xCor 3335
config **.node[61].yCor 1726
config **.node[62].xCor 3478
config **.node[62].yCor 1517
config **.node[63].xCor 3386
config **.node[63].yCor 2119
config **.node[64].xCor 3474
config **.node[64].yCor 1762
config **.node[65].xCor 3797
config **.node[65].yCor 2099
config **.node[66].xCor 3642
config **.node[66].yCor 2136
config **.node[67].xCor 3481
config **.node[67].yCor 2334
config **.node[68].xCor 3088
config **.node[68].yCor 1505
config **.node[69].xCor 3037
config **.node[69].yCor 1693
config **.node[70].xCor 3026
config **.node[70].yCor 1700
config **.node[71].xCor 3019
config **.node[71].yCor 669
config **.node[72].xCor 3513
config **.node[72].yCor 1358
config **.node[73].xCor 3545
config **.node[73].yCor 1230
config **.node[74].xCor 4228
config **.node[74].yCor 4220
config **.node[75].xCor 3379
config **.node[75].yCor 1207
config **.node[76].xCor 3596
config **.node[76].yCor 963
config **.node[77].xCor 3637
config **.node[77].yCor 1188
config **.node[78].xCor 3759
config **.node[78].yCor 1030
config **.node[79].xCor 2918
config **.node[79].yCor 1455
config **.node[80].xCor 2711
config **.node[80].yCor 1297
config **.node[81].xCor 439
config **.node[81].yCor 1623
config **.node[82].xCor 2857
config **.node[82].yCor 3581
config **.node[83].xCor 2858
config **.node[83].yCor 3584
config **.node[84].xCor 2999
config **.node[84].yCor 2636
config **.node[85].xCor 2905
config **.node[85].yCor 2778
config **.node[86].xCor 2653
config **.node[86].yCor 2845
config **.node[87].xCor 2864
config **.node[87].yCor 2836
config **.node[88].xCor 2426
config **.node[88].yCor 2892
config **.node[89].xCor 2964
config **.node[89].yCor 2804
config **.node[90].xCor 2586
config **.node[90].yCor 3135
config **.node[91].xCor 2864
config **.node[91].yCor 2980
config **.node[92].xCor 2527
config **.node[92].yCor 3219
config **.node[93].xCor 2863
config **.node[93].yCor 3142
config **.node[94].xCor 2485
config **.node[94].yCor 3269
config **.node[95].xCor 2653
config **.node[95].yCor 1065
config **.node[96].xCor 4062
config **.node[96].yCor 400
config **.node[97].xCor 5762
config **.node[97].yCor 3023
config **.node[98].xCor 1414
config **.node[98].yCor 3461
config **.node[99].xCor 2911
config **.node[99].yCor 1737
config **.node[100].xCor 2595
config **.node[100].yCor 2299
config **.node[101].xCor 2702
config **.node[101].yCor 3419
config **.node[102].xCor 2813
config **.node[102].yCor 3307
config **.node[103].xCor 2638
config **.node[103].yCor 2258
config **.node[104].xCor 2590
config **.node[104].yCor 3125
config **.node[105].xCor 1856
config **.node[105].yCor 2990
config **.node[106].xCor 1894
config **.node[106].yCor 2239
config **.node[107].xCor 383
config **.node[107].yCor 1251
config **.node[108].xCor 3447
config **.node[108].yCor 5489
config **.node[109].xCor 3450
config **.node[109].yCor 5697
config **.node[110].xCor 2719
config **.node[110].yCor 1920
config **.node[111].xCor 2085
config **.node[111].yCor 2389
config **.node[112].xCor 1910
config **.node[112].yCor 2548
config **.node[113].xCor 2069
config **.node[113].yCor 2050
config **.node[114].xCor 2184
config **.node[114].yCor 2209
config **.node[115].xCor 2278
config **.node[115].yCor 2390
config **.node[116].xCor 2249
config **.node[116].yCor 2299
config **.node[117].xCor 2356
config **.node[117].yCor 2303
config **.node[118].xCor 2192
config **.node[118].yCor 2475
config **.node[119].xCor 1720
config **.node[119].yCor 2911
config **.node[120].xCor 2400
config **.node[120].yCor 2887
config **.node[121].xCor 3344
config **.node[121].yCor 1890
config **.node[122].xCor 3136
config **.node[122].yCor 2418
config **.node[123].xCor 3243
config **.node[123].yCor 2525
config **.node[124].xCor 2396
config **.node[124].yCor 1267
config **.node[125].xCor 467
config **.node[125].yCor 1875
config **.node[126].xCor 3506
config **.node[126].yCor 1221
config **.node[127].xCor 1034
config **.node[127].yCor 1474
config **.node[128].xCor 2908
config **.node[128].yCor 1784
config **.node[129].xCor 2876
config **.node[129].yCor 1761
config **.node[130].xCor 2849
config **.node[130].yCor 1795
config **.node[131].xCor 3029
config **.node[131].yCor 1859
config **.node[132].xCor 2924
config **.node[132].yCor 1848
config **.node[133].xCor 3493
config **.node[133].yCor 1559
config **.node[134].xCor 2760
config **.node[134].yCor 1761
config **.node[135].xCor 1644
config **.node[135].yCor 3755
config **.node[136].xCor 1463
config **.node[136].yCor 3432
config **.node[137].xCor 2595
config **.node[137].yCor 2849
config **.node[138].xCor 2581
config **.node[138].yCor 2867
config **.node[139].xCor 2524
config **.node[139].yCor 2911
config **.node[140].xCor 2570
config **.node[140].yCor 2924
config **.node[141].xCor 2676
config **.node[141].yCor 2890
config **.node[142].xCor 2666
config **.node[142].yCor 2876
config **.node[143].xCor 3735
config **.node[143].yCor 1726
config **.node[144].xCor 1637
config **.node[144].yCor 3438

vector 0 TaxiNetwork.node[93] visitedPerTimestep ETV
vector 1 TaxiNetwork.node[12] visitedPerTimestep ETV
vector 2 TaxiNetwork.node[0] visitedPerTimestep ETV
vector 3 TaxiNetwork.node[6] visitedPerTimestep ETV
vector 4 TaxiNetwork.node[88] visitedPerTimestep ETV
vector 5 TaxiNetwork.node[53] visitedPerTimestep ETV
vector 6 TaxiNetwork.node[18] visitedPerTimestep ETV
vector 7 TaxiNetwork.node[15] visitedPerTimestep ETV
vector 8 TaxiNetwork.node[140] visitedPerTimestep ETV
vector 9 TaxiNetwork.node[46] visitedPerTimestep ETV
vector 10 TaxiNetwork.node[102] visitedPerTimestep ETV
vector 11 TaxiNetwork.node[87] visitedPerTimestep ETV
vector 12 TaxiNetwork.node[20] visitedPerTimestep ETV
vector 13 TaxiNetwork.node[1] visitedPerTimestep ETV
vector 14 TaxiNetwork.node[141] visitedPerTimestep ETV
vector 15 TaxiNetwork.node[19] visitedPerTimestep ETV
vector 16 TaxiNetwork.node[54] visitedPerTimestep ETV
vector 17 TaxiNetwork.node[139] visitedPerTimestep ETV
vector 18 TaxiNetwork.node[57] visitedPerTimestep ETV
vector 19 TaxiNetwork.node[3] visitedPerTimestep ETV
vector 20 TaxiNetwork.node[104] visitedPerTimestep ETV
vector 21 TaxiNetwork.node[83] visitedPerTimestep ETV
vector 22 TaxiNetwork.node[30] visitedPerTimestep ETV
vector 23 TaxiNetwork.node[32] visitedPerTimestep ETV
vector 24 TaxiNetwork.node[11] visitedPerTimestep ETV
vector 25 TaxiNetwork.node[116] visitedPerTimestep ETV
vector 26 TaxiNetwork.node[138] visitedPerTimestep ETV
vector 27 TaxiNetwork.node[118] visitedPerTimestep ETV
vector 28 TaxiNetwork.node[117] visitedPerTimestep ETV
vector 29 TaxiNetwork.node[112] visitedPerTimestep ETV
vector 30 TaxiNetwork.node[56] visitedPerTimestep ETV
vector 31 TaxiNetwork.node[14] visitedPerTimestep ETV
vector 32 TaxiNetwork.node[94] visitedPerTimestep ETV
vector 33 TaxiNetwork.node[82] visitedPerTimestep ETV
vector 34 TaxiNetwork.node[55] visitedPerTimestep ETV
vector 35 TaxiNetwork.node[45] visitedPerTimestep ETV
vector 36 TaxiNetwork.node[8] visitedPerTimestep ETV
vector 37 TaxiNetwork.node[9] visitedPerTimestep ETV
vector 38 TaxiNetwork.node[120] visitedPerTimestep ETV
vector 39 TaxiNetwork.node[10] visitedPerTimestep ETV
vector 40 TaxiNetwork.node[84] visitedPerTimestep ETV
vector 41 TaxiNetwork.node[89] visitedPerTimestep ETV
vector 42 TaxiNetwork.node[21] visitedPerTimestep ETV
vector 43 TaxiNetwork.node[29] visitedPerTimestep ETV
vector 44 TaxiNetwork.node[33] visitedPerTimestep ETV
vector 45 TaxiNetwork.node[101] visitedPerTimestep ETV
vector 46 TaxiNetwork.node[85] visitedPerTimestep ETV
vector 47 TaxiNetwork.node[122] visitedPerTimestep ETV
vector 48 TaxiNetwork.node[16] visitedPerTimestep ETV
vector 49 TaxiNetwork.node[90] visitedPerTimestep ETV
vector 50 TaxiNetwork.node[17] visitedPerTimestep ETV
vector 51 TaxiNetwork.node[91] visitedPerTimestep ETV
vector 52 TaxiNetwork.node[37] visitedPerTimestep ETV
vector 53 TaxiNetwork.node[115] visitedPerTimestep ETV
vector 54 TaxiNetwork.node[92] visitedPerTimestep ETV
vector 55 TaxiNetwork.node[4] visitedPerTimestep ETV
vector 56 TaxiNetwork.node[2] visitedPerTimestep ETV
vector 57 TaxiNetwork.node[44] visitedPerTimestep ETV
vector 58 TaxiNetwork.node[74] visitedPerTimestep ETV
vector 59 TaxiNetwork.node[39] visitedPerTimestep ETV
vector 60 TaxiNetwork.node[31] visitedPerTimestep ETV
vector 61 TaxiNetwork.node[13] visitedPerTimestep ETV
vector 62 TaxiNetwork.node[111] visitedPerTimestep ETV
vector 63 TaxiNetwork.node[119] visitedPerTimestep ETV
vector 64 TaxiNetwork.node[142] visitedPerTimestep ETV
vector 65 TaxiNetwork.node[86] visitedPerTimestep ETV
vector 66 TaxiNetwork.node[5] visitedPerTimestep ETV
vector 67 TaxiNetwork.node[24] visitedPerTimestep ETV
vector 68 TaxiNetwork.node[26] visitedPerTimestep ETV
vector 69 TaxiNetwork.node[27] visitedPerTimestep ETV
vector 70 TaxiNetwork.node[22] visitedPerTimestep ETV
vector 71 TaxiNetwork.node[100] visitedPerTimestep ETV
vector 72 TaxiNetwork.node[123] visitedPerTimestep ETV
vector 73 TaxiNetwork.node[63] visitedPerTimestep ETV
vector 74 TaxiNetwork.node[66] visitedPerTimestep ETV
vector 75 TaxiNetwork.node[121] visitedPerTimestep ETV
vector 76 TaxiNetwork.node[70] visitedPerTimestep ETV
vector 77 TaxiNetwork.node[110] visitedPerTimestep ETV
vector 78 TaxiNetwork.node[58] visitedPerTimestep ETV
vector 79 TaxiNetwork.node[59] visitedPerTimestep ETV
vector 80 TaxiNetwork.node[106] visitedPerTimestep ETV
vector 81 TaxiNetwork.node[105] visitedPerTimestep ETV
vector 82 TaxiNetwork.node[51] visitedPerTimestep ETV
vector 83 TaxiNetwork.node[114] visitedPerTimestep ETV
vector 84 TaxiNetwork.node[52] visitedPerTimestep ETV
vector 85 TaxiNetwork.node[36] visitedPerTimestep ETV
vector 86 TaxiNetwork.node[103] visitedPerTimestep ETV
vector 87 TaxiNetwork.node[7] visitedPerTimestep ETV
vector 88 TaxiNetwork.node[137] visitedPerTimestep ETV
vector 89 TaxiNetwork.node[67] visitedPerTimestep ETV
vector 90 TaxiNetwork.node[40] visitedPerTimestep ETV
vector 91 TaxiNetwork.node[113] visitedPerTimestep ETV
vector 92 TaxiNetwork.node[28] visitedPerTimestep ETV
vector 93 TaxiNetwork.node[99] visitedPerTimestep ETV
vector 94 TaxiNetwork.node[34] visitedPerTimestep ETV
vector 95 TaxiNetwork.node[68] visitedPerTimestep ETV
vector 96 TaxiNetwork.node[143] visitedPerTimestep ETV
vector 97 TaxiNetwork.node[65] visitedPerTimestep ETV
vector 98 TaxiNetwork.node[130] visitedPerTimestep ETV
vector 99 TaxiNetwork.node[134] visitedPerTimestep ETV
vector 100 TaxiNetwork.node[132] visitedPerTimestep ETV
vector 101 TaxiNetwork.node[129] visitedPerTimestep ETV
vector 102 TaxiNetwork.node[131] visitedPerTimestep ETV
vector 103 TaxiNetwork.node[64] visitedPerTimestep ETV
vector 104 TaxiNetwork.node[62] visitedPerTimestep ETV
vector 105 TaxiNetwork.node[77] visitedPerTimestep ETV
vector 106 TaxiNetwork.node[61] visitedPerTimestep ETV
vector 107 TaxiNetwork.node[75] visitedPerTimestep ETV
vector 108 TaxiNetwork.node[128] visitedPerTimestep ETV
vector 109 TaxiNetwork.node[79] visitedPerTimestep ETV
vector 110 TaxiNetwork.node[133] visitedPerTimestep ETV
vector 111 TaxiNetwork.node[126] visitedPerTimestep ETV
vector 112 TaxiNetwork.node[76] visitedPerTimestep ETV
vector 113 TaxiNetwork.node[73] visitedPerTimestep ETV
vector 114 TaxiNetwork.node[60] visitedPerTimestep ETV
vector 115 TaxiNetwork.node[72] visitedPerTimestep ETV
vector 116 TaxiNetwork.node[78] visitedPerTimestep ETV
vector 117 TaxiNetwork.node[95] visitedPerTimestep ETV
vector 118 TaxiNetwork.node[80] visitedPerTimestep ETV
vector 119 TaxiNetwork.node[69] visitedPerTimestep ETV
vector 120 TaxiNetwork.node[136] visitedPerTimestep ETV
vector 121 TaxiNetwork.node[48] visitedPerTimestep ETV
vector 122 TaxiNetwork.node[124] visitedPerTimestep ETV
vector 123 TaxiNetwork.node[35] visitedPerTimestep ETV
vector 124 TaxiNetwork.node[71] visitedPerTimestep ETV
vector 125 TaxiNetwork.node[47] visitedPerTimestep ETV
vector 126 TaxiNetwork.node[135] visitedPerTimestep ETV
vector 127 TaxiNetwork.node[50] visitedPerTimestep ETV
vector 128 TaxiNetwork.node[49] visitedPerTimestep ETV
vector 129 TaxiNetwork.node[144] visitedPerTimestep ETV
vector 130 TaxiNetwork.node[98] visitedPerTimestep ETV
0	1	0	1
0	28	0	24
0	36	0	27
0	92	0	54
0	280	0	89
0	861	0	122
0	1342	0	124
0	1728	0	124
0	1756	0	124
0	1782	0	124
0	1852	0	124
0	1880	0	124
0	2038	0	124
0	2054	0	124
0	2066	0	124
0	2078	0	124
0	2102	0	124
0	2160	0	124
0	2192	0	124
0	2370	0	124
0	2428	0	124
0	2776	0	125
0	2836	0	125
0	3568	0	132
0	3748	0	132
0	3796	0	132
0	4472	0	134
0	5400	0	134
0	6208	0	137
0	6748	0	137
0	7872	0	139
0	7896	0	139
0	8032	0	139
0	9168	0	140
0	9240	0	140
0	9464	0	140
0	11824	0	141
0	12888	0	141
0	13176	0	141
0	13680	0	141
0	14560	0	141
0	14592	0	141
0	16904	0	142
0	19096	0	142
0	19928	0	142
1	2	0	2
1	82	0	51
1	125	0	64
1	235	0	87
1	754	0	122
1	763	0	122
1	796	0	122
1	1052	0	123
1	1090	0	123
1	1256	0	123
1	1874	0	124
1	2194	0	124
1	2780	0	125
1	2894	0	126
1	2968	0	126
1	3320	0	130
1	3752	0	132
1	4176	0	134
1	4220	0	134
1	4476	0	134
1	4728	0	134
1	4964	0	134
1	7096	0	137
1	7272	0	137
1	7352	0	137
1	7888	0	139
1	8216	0	139
1	8600	0	140
1	9752	0	140
1	11328	0	141
1	11528	0	141
1	11896	0	141
1	11928	0	141
1	12248	0	141
1	12528	0	141
1	12640	0	141
1	12912	0	141
1	13928	0	141
1	14088	0	141
1	14152	0	141
1	14464	0	141
1	14624	0	141
1	14888	0	142
1	15288	0	142
1	16648	0	142
1	18984	0	142
1	19176	0	142
1	19880	0	142
1	20024	0	142
2	3	0	3
2	278	0	89
2	399	0	93
2	833	0	122
2	836	0	122
2	867	0	122
2	1044	0	123
2	1392	0	124
2	1610	0	124
2	1754	0	124
2	1796	0	124
2	1902	0	124
2	2346	0	124
2	2610	0	125
2	2656	0	125
2	2704	0	125
2	3308	0	130
2	3384	0	130
2	3512	0	131
2	4248	0	134
2	4356	0	134
2	5568	0	134
2	6100	0	137
2	6552	0	137
2	7024	0	137
2	7072	0	137
2	7288	0	137
2	8736	0	140
2	9680	0	140
2	10208	0	140
2	10288	0	140
2	11696	0	141
2	12280	0	141
2	13112	0	141
2	14488	0	141
2	14856	0	142
2	14912	0	142
2	18312	0	142
2	20136	0	142
2	20264	0	142
2	20328	0	144
3	4	0	4
3	33	0	26
3	37	0	27
3	234	0	87
3	242	0	87
3	321	0	91
3	380	0	93
3	467	0	111
3	488	0	111
3	507	0	111
3	670	0	120
3	693	0	120
3	990	0	123
3	1080	0	123
3	1164	0	123
3	1360	0	124
3	2008	0	124
3	2436	0	124
3	2628	0	125
3	2910	0	126
3	2956	0	126
3	3316	0	130
3	3416	0	131
3	3432	0	131
3	3524	0	132
3	3548	0	132
3	3768	0	132
3	3836	0	132
3	3964	0	134
3	4336	0	134
3	4352	0	134
3	4460	0	134
3	4860	0	134
3	5572	0	134
3	5684	0	134
3	6380	0	137
3	6460	0	137
3	6556	0	137
3	6568	0	137
3	7008	0	137
3	7184	0	137
3	7720	0	139
3	8096	0	139
3	8592	0	140
3	9200	0	140
3	9368	0	140
3	9696	0	140
3	10336	0	140
3	10664	0	140
3	11496	0	141
3	12512	0	141
3	12736	0	141
3	12920	0	141
3	14024	0	141
3	14728	0	141
3	15256	0	142
3	16952	0	142
3	17080	0	142
3	17976	0	142
3	18104	0	142
3	18152	0	142
3	18840	0	142
3	18904	0	142
3	19112	0	142
3	19240	0	142
3	19832	0	142
4	5	0	5
4	120	0	64
4	179	0	81
4	263	0	88
4	350	0	92
4	354	0	92
4	568	0	115
4	797	0	122
4	832	0	122
4	841	0	122
4	1084	0	123
4	1204	0	123
4	1230	0	123
4	1260	0	123
4	1296	0	124
4	1456	0	124
4	1638	0	124
4	1732	0	124
4	2090	0	124
4	2104	0	124
4	2148	0	124
4	2154	0	124
4	2162	0	124
4	2212	0	124
4	2324	0	124
4	2366	0	124
4	2374	0	124
4	2692	0	125
4	2972	0	126
4	3112	0	130
4	3200	0	130
4	3236	0	130
4	3420	0	131
4	3780	0	132
4	4168	0	134
4	4196	0	134
4	4884	0	134
4	5036	0	134
4	5060	0	134
4	5708	0	134
4	6280	0	137
4	6692	0	137
4	6752	0	137
4	6904	0	137
4	6980	0	137
4	8120	0	139
4	8960	0	140
4	9104	0	140
4	10392	0	140
4	10480	0	140
4	11448	0	141
4	11520	0	141
4	11968	0	141
4	14112	0	141
4	14168	0	141
4	14472	0	141
4	14544	0	141
4	14792	0	142
4	16808	0	142
4	17848	0	142
4	18872	0	142
4	20104	0	142
5	6	0	6
5	18	0	17
5	190	0	83
5	261	0	88
5	352	0	92
5	381	0	93
5	532	0	111
5	657	0	120
5	702	0	120
5	742	0	122
5	767	0	122
5	940	0	122
5	1002	0	123
5	1698	0	124
5	2014	0	124
5	2930	0	126
5	3048	0	126
5	3252	0	130
5	4200	0	134
5	4212	0	134
5	4328	0	134
5	5000	0	134
5	5312	0	134
5	5676	0	134
5	6356	0	137
5	7224	0	137
5	8176	0	139
5	8768	0	140
5	8968	0	140
5	9048	0	140
5	9184	0	140
5	9208	0	140
5	9376	0	140
5	10096	0	140
5	10992	0	141
5	11392	0	141
5	11760	0	141
5	11776	0	141
5	12024	0	141
5	12376	0	141
5	12592	0	141
5	17352	0	142
5	18408	0	142
5	20088	0	142
6	7	0	7
6	76	0	49
6	91	0	54
6	138	0	67
6	140	0	67
6	246	0	87
6	274	0	89
6	373	0	93
6	419	0	95
6	516	0	111
6	525	0	111
6	539	0	111
6	697	0	120
6	776	0	122
6	818	0	122
6	856	0	122
6	933	0	122
6	992	0	123
6	1086	0	123
6	1688	0	124
6	1834	0	124
6	2060	0	124
6	2094	0	124
6	2140	0	124
6	2270	0	124
6	2300	0	124
6	2706	0	125
6	2796	0	125
6	2958	0	126
6	3256	0	130
6	3496	0	131
6	3864	0	134
6	4348	0	134
6	5356	0	134
6	6136	0	137
6	6316	0	137
6	6396	0	137
6	6860	0	137
6	6916	0	137
6	7016	0	137
6	7920	0	139
6	7968	0	139
6	10240	0	140
6	10352	0	140
6	11656	0	141
6	12344	0	141
6	13912	0	141
6	14672	0	141
6	17640	0	142
6	17800	0	142
6	18184	0	142
7	8	0	8
7	214	0	86
7	302	0	91
7	476	0	111
7	512	0	111
7	738	0	122
7	780	0	122
7	794	0	122
7	820	0	122
7	957	0	122
7	1160	0	123
7	1282	0	123
7	1326	0	124
7	1470	0	124
7	1474	0	124
7	1494	0	124
7	1622	0	124
7	1780	0	124
7	1840	0	124
7	2344	0	124
7	2388	0	124
7	2418	0	124
7	2584	0	125
7	2702	0	125
7	2802	0	125
7	4012	0	134
7	4064	0	134
7	4404	0	134
7	4468	0	134
7	4888	0	134
7	4988	0	134
7	5032	0	134
7	5068	0	134
7	5264	0	134
7	5404	0	134
7	5812	0	134
7	5960	0	134
7	6016	0	134
7	6172	0	137
7	6852	0	137
7	7312	0	137
7	7512	0	137
7	8424	0	140
7	8536	0	140
7	8584	0	140
7	9448	0	140
7	9584	0	140
7	10152	0	140
7	10768	0	140
7	11072	0	141
7	12544	0	141
7	13320	0	141
7	14904	0	142
7	14936	0	142
7	15064	0	142
7	16888	0	142
7	18248	0	142
7	20040	0	142
8	9	0	9
8	34	0	26
8	88	0	53
8	101	0	58
8	176	0	81
8	420	0	95
8	492	0	111
8	500	0	111
8	717	0	122
8	803	0	122
8	837	0	122
8	1054	0	123
8	1134	0	123
8	1246	0	123
8	1254	0	123
8	1316	0	124
8	1484	0	124
8	1498	0	124
8	2016	0	124
8	2256	0	124
8	2590	0	125
8	2598	0	125
8	2812	0	125
8	2898	0	126
8	2962	0	126
8	3304	0	130
8	3460	0	131
8	3740	0	132
8	4000	0	134
8	4516	0	134
8	4552	0	134
8	4608	0	134
8	4668	0	134
8	4692	0	134
8	6352	0	137
8	6412	0	137
8	6664	0	137
8	7384	0	137
8	8224	0	139
8	8488	0	140
8	8656	0	140
8	10104	0	140
8	10776	0	140
8	11104	0	141
8	13016	0	141
8	19032	0	142
9	10	0	10
9	96	0	56
9	132	0	65
9	421	0	95
9	481	0	111
9	527	0	111
9	688	0	120
9	922	0	122
9	934	0	122
9	1072	0	123
9	1076	0	123
9	1094	0	123
9	1680	0	124
9	1872	0	124
9	2064	0	124
9	2098	0	124
9	2612	0	125
9	2636	0	125
9	2782	0	125
9	2886	0	126
9	3148	0	130
9	3220	0	130
9	3456	0	131
9	3984	0	134
9	4088	0	134
9	4612	0	134
9	4912	0	134
9	5920	0	134
9	6012	0	134
9	7056	0	137
9	7792	0	139
9	7984	0	139
9	8232	0	139
9	9424	0	140
9	10048	0	140
9	11096	0	141
9	11688	0	141
9	12152	0	141
9	12648	0	141
9	12896	0	141
9	13040	0	141
9	13096	0	141
9	13136	0	141
9	14368	0	141
9	16712	0	142
9	16856	0	142
9	17000	0	142
9	19384	0	142
10	11	0	11
10	46	0	32
10	87	0	53
10	103	0	58
10	239	0	87
10	266	0	88
10	282	0	89
10	389	0	93
10	480	0	111
10	534	0	111
10	538	0	111
10	718	0	122
10	728	0	122
10	811	0	122
10	816	0	122
10	943	0	122
10	1058	0	123
10	1068	0	123
10	1674	0	124
10	1894	0	124
10	1928	0	124
10	2138	0	124
10	2150	0	124
10	2190	0	124
10	2230	0	124
10	2290	0	124
10	2362	0	124
10	2438	0	124
10	2824	0	125
10	2908	0	126
10	3272	0	130
10	3344	0	130
10	3356	0	130
10	3804	0	132
10	3824	0	132
10	3832	0	132
10	4068	0	134
10	4076	0	134
10	4372	0	134
10	4900	0	134
10	5276	0	134
10	5988	0	134
10	6292	0	137
10	6344	0	137
10	6452	0	137
10	6924	0	137
10	7040	0	137
10	10176	0	140
10	10456	0	140
10	11336	0	141
10	12480	0	141
10	18024	0	142
11	12	0	12
11	734	0	122
11	777	0	122
11	806	0	122
11	917	0	122
11	1244	0	123
11	1344	0	124
11	1476	0	124
11	1480	0	124
11	1492	0	124
11	1682	0	124
11	1806	0	124
11	2118	0	124
11	2330	0	124
11	2542	0	125
11	2690	0	125
11	2830	0	125
11	2996	0	126
11	3428	0	131
11	4124	0	134
11	4164	0	134
11	4184	0	134
11	4260	0	134
11	4896	0	134
11	4908	0	134
11	5908	0	134
11	6056	0	134
11	6444	0	137
11	6528	0	137
11	6676	0	137
11	6936	0	137
11	8336	0	140
11	8360	0	140
11	8520	0	140
11	9688	0	140
11	10608	0	140
11	11128	0	141
11	12184	0	141
11	12256	0	141
11	12504	0	141
11	12728	0	141
11	12944	0	141
11	13168	0	141
11	13240	0	141
11	13664	0	141
11	14128	0	141
11	14984	0	142
11	20008	0	142
12	13	0	13
12	29	0	24
12	60	0	42
12	99	0	57
12	102	0	58
12	213	0	86
12	296	0	91
12	359	0	92
12	379	0	93
12	462	0	111
12	689	0	120
12	789	0	122
12	835	0	122
12	1168	0	123
12	1294	0	123
12	1790	0	124
12	1936	0	124
12	2238	0	124
12	2278	0	124
12	2686	0	125
12	2918	0	126
12	2946	0	126
12	2950	0	126
12	4680	0	134
12	4960	0	134
12	5116	0	134
12	6180	0	137
12	7768	0	139
12	8712	0	140
12	9088	0	140
12	9344	0	140
12	10056	0	140
12	10120	0	140
12	11080	0	141
12	11112	0	141
12	11720	0	141
12	12360	0	141
12	12432	0	141
12	13608	0	141
12	14080	0	141
12	14120	0	141
12	14880	0	142
12	17880	0	142
13	14	0	14
13	45	0	32
13	118	0	64
13	303	0	91
13	306	0	91
13	529	0	111
13	694	0	120
13	795	0	122
13	1064	0	123
13	1226	0	123
13	1454	0	124
13	1572	0	124
13	1684	0	124
13	1832	0	124
13	2594	0	125
13	2606	0	125
13	2616	0	125
13	2670	0	125
13	3324	0	130
13	3848	0	133
13	4092	0	134
13	4264	0	134
13	4396	0	134
13	4428	0	134
13	4588	0	134
13	5092	0	134
13	5756	0	134
13	5904	0	134
13	6880	0	137
13	8464	0	140
13	8608	0	140
13	8880	0	140
13	8928	0	140
13	9720	0	140
13	9808	0	140
13	10248	0	140
13	10464	0	140
13	11632	0	141
13	11848	0	141
13	13688	0	141
13	14864	0	142
13	15544	0	142
13	19224	0	142
13	20344	0	144
14	15	0	15
14	58	0	41
14	67	0	46
14	159	0	78
14	177	0	81
14	307	0	91
14	491	0	111
14	651	0	120
14	743	0	122
14	764	0	122
14	781	0	122
14	783	0	122
14	787	0	122
14	829	0	122
14	921	0	122
14	958	0	122
14	1284	0	123
14	1686	0	124
14	1862	0	124
14	2222	0	124
14	2282	0	124
14	2444	0	124
14	2526	0	125
14	2556	0	125
14	2694	0	125
14	2832	0	125
14	2974	0	126
14	3000	0	126
14	3100	0	130
14	3156	0	130
14	3500	0	131
14	3520	0	131
14	4192	0	134
14	4660	0	134
14	4864	0	134
14	5692	0	134
14	6216	0	137
14	6456	0	137
14	6472	0	137
14	6508	0	137
14	6628	0	137
14	6660	0	137
14	6672	0	137
14	6764	0	137
14	6908	0	137
14	6964	0	137
14	7256	0	137
14	8144	0	139
14	8184	0	139
14	10448	0	140
14	10744	0	140
14	11368	0	141
14	12016	0	141
14	12368	0	141
14	12496	0	141
14	12536	0	141
14	12776	0	141
14	14496	0	141
14	14720	0	141
14	14840	0	142
14	18072	0	142
14	18520	0	142
14	19496	0	142
15	16	0	16
15	109	0	61
15	240	0	87
15	255	0	88
15	257	0	88
15	371	0	93
15	388	0	93
15	413	0	94
15	504	0	111
15	569	0	115
15	731	0	122
15	736	0	122
15	744	0	122
15	770	0	122
15	846	0	122
15	1228	0	123
15	1242	0	123
15	1298	0	124
15	1592	0	124
15	1604	0	124
15	1658	0	124
15	1692	0	124
15	1822	0	124
15	1878	0	124
15	1916	0	124
15	2358	0	124
15	2680	0	125
15	3036	0	126
15	3128	0	130
15	3188	0	130
15	3288	0	130
15	3852	0	133
15	4096	0	134
15	4128	0	134
15	4448	0	134
15	6636	0	137
15	6704	0	137
15	7864	0	139
15	8320	0	140
15	8624	0	140
15	10072	0	140
15	10192	0	140
15	10368	0	140
15	10568	0	140
15	11144	0	141
15	13120	0	141
15	13216	0	141
15	13264	0	141
15	13544	0	141
15	13560	0	141
15	13600	0	141
15	14144	0	141
15	14392	0	141
15	14696	0	141
15	18296	0	142
15	20296	0	143
15	20360	0	145
16	17	0	17
16	24	0	22
16	185	0	83
16	191	0	83
16	205	0	85
16	209	0	86
16	211	0	86
16	313	0	91
16	463	0	111
16	727	0	122
16	774	0	122
16	792	0	122
16	1124	0	123
16	1292	0	123
16	1340	0	124
16	1576	0	124
16	1596	0	124
16	1884	0	124
16	1908	0	124
16	2034	0	124
16	2084	0	124
16	2372	0	124
16	2386	0	124
16	2410	0	124
16	2572	0	125
16	3744	0	132
16	3792	0	132
16	4388	0	134
16	4936	0	134
16	5028	0	134
16	5272	0	134
16	5280	0	134
16	5728	0	134
16	6224	0	137
16	6436	0	137
16	6600	0	137
16	7320	0	137
16	7656	0	139
16	7816	0	139
16	7960	0	139
16	9144	0	140
16	9512	0	140
16	11664	0	141
16	11800	0	141
16	13272	0	141
16	16920	0	142
16	17176	0	142
16	17816	0	142
16	18456	0	142
17	19	0	18
17	32	0	26
17	161	0	78
17	175	0	81
17	226	0	86
17	268	0	89
17	305	0	91
17	385	0	93
17	409	0	94
17	510	0	111
17	652	0	120
17	838	0	122
17	840	0	122
17	851	0	122
17	857	0	122
17	1074	0	123
17	1186	0	123
17	1324	0	124
17	1336	0	124
17	1608	0	124
17	1710	0	124
17	1886	0	124
17	1914	0	124
17	2024	0	124
17	2164	0	124
17	2218	0	124
17	2368	0	124
17	2402	0	124
17	2562	0	125
17	2632	0	125
17	2644	0	125
17	2754	0	125
17	2788	0	125
17	3024	0	126
17	3872	0	134
17	4060	0	134
17	4380	0	134
17	4440	0	134
17	4596	0	134
17	4980	0	134
17	5080	0	134
17	6152	0	137
17	6160	0	137
17	6248	0	137
17	6388	0	137
17	6760	0	137
17	6808	0	137
17	7208	0	137
17	7440	0	137
17	7456	0	137
17	8104	0	139
17	8472	0	140
17	8560	0	140
17	8696	0	140
17	8752	0	140
17	9312	0	140
17	9712	0	140
17	11312	0	141
17	11680	0	141
17	11816	0	141
17	11920	0	141
17	12136	0	141
17	12904	0	141
17	13616	0	141
17	15624	0	142
17	15672	0	142
17	16728	0	142
17	18376	0	142
17	19400	0	142
17	19864	0	142
18	20	0	19
18	545	0	111
18	658	0	120
18	941	0	122
18	1736	0	124
18	1888	0	124
18	2026	0	124
18	2210	0	124
18	2732	0	125
18	3408	0	130
18	3536	0	132
18	4528	0	134
18	4736	0	134
18	6360	0	137
18	7200	0	137
18	8816	0	140
18	9192	0	140
18	9704	0	140
18	12040	0	141
19	21	0	20
19	115	0	64
19	196	0	83
19	204	0	85
19	223	0	86
19	374	0	93
19	383	0	93
19	397	0	93
19	427	0	95
19	513	0	111
19	665	0	120
19	785	0	122
19	798	0	122
19	942	0	122
19	1046	0	123
19	1096	0	123
19	1232	0	123
19	1236	0	123
19	1722	0	124
19	1726	0	124
19	1904	0	124
19	2546	0	125
19	2622	0	125
19	2816	0	125
19	2938	0	126
19	2948	0	126
19	2980	0	126
19	3204	0	130
19	3540	0	132
19	3892	0	134
19	3972	0	134
19	4052	0	134
19	4332	0	134
19	4360	0	134
19	4524	0	134
19	4732	0	134
19	4996	0	134
19	5076	0	134
19	5328	0	134
19	6416	0	137
19	6816	0	137
19	6836	0	137
19	6960	0	137
19	8248	0	139
19	8448	0	140
19	8568	0	140
19	9672	0	140
19	10088	0	140
19	11024	0	141
19	11960	0	141
19	11992	0	141
19	12008	0	141
19	12144	0	141
19	12200	0	141
19	12304	0	141
19	12384	0	141
19	14664	0	141
19	16968	0	142
19	19528	0	142
19	20280	0	143
20	22	0	21
20	49	0	33
20	117	0	64
20	178	0	81
20	206	0	85
20	391	0	93
20	518	0	111
20	531	0	111
20	726	0	122
20	963	0	122
20	1060	0	123
20	1730	0	124
20	1808	0	124
20	1854	0	124
20	2174	0	124
20	2266	0	124
20	2638	0	125
20	2920	0	126
20	3212	0	130
20	3584	0	132
20	3924	0	134
20	4120	0	134
20	4424	0	134
20	4480	0	134
20	4604	0	134
20	4992	0	134
20	6128	0	137
20	6156	0	137
20	6272	0	137
20	6572	0	137
20	6728	0	137
20	6756	0	137
20	6800	0	137
20	6896	0	137
20	7120	0	137
20	7688	0	139
20	7944	0	139
20	8368	0	140
20	8496	0	140
20	9824	0	140
20	10184	0	140
20	10384	0	140
20	10560	0	140
20	12464	0	141
20	13208	0	141
20	14440	0	141
20	14704	0	141
21	23	0	22
21	25	0	22
21	61	0	42
21	368	0	93
21	387	0	93
21	477	0	111
21	750	0	122
21	848	0	122
21	1122	0	123
21	1620	0	124
21	1768	0	124
21	2036	0	124
21	2114	0	124
21	2128	0	124
21	2272	0	124
21	2412	0	124
21	2874	0	125
21	3132	0	130
21	3640	0	132
21	5104	0	134
21	6176	0	137
21	6340	0	137
21	6432	0	137
21	6608	0	137
21	6796	0	137
21	7680	0	139
21	9576	0	140
22	26	0	23
22	122	0	64
22	129	0	64
22	193	0	83
22	232	0	87
22	292	0	90
22	875	0	122
22	937	0	122
22	1472	0	124
22	1652	0	124
22	1656	0	124
22	1812	0	124
22	1820	0	124
22	1932	0	124
22	2096	0	124
22	2406	0	124
22	2534	0	125
22	2558	0	125
22	2786	0	125
22	3328	0	130
22	3444	0	131
22	3516	0	131
22	3560	0	132
22	4488	0	134
22	4508	0	134
22	5336	0	134
22	5360	0	134
22	6028	0	134
22	6104	0	137
22	6404	0	137
22	6440	0	137
22	6560	0	137
22	6848	0	137
22	6868	0	137
22	7912	0	139
22	8640	0	140
22	9112	0	140
22	11544	0	141
22	11856	0	141
22	13232	0	141
22	14680	0	141
22	16984	0	142
22	18968	0	142
22	19192	0	142
22	20312	0	144
23	27	0	24
23	107	0	60
23	216	0	86
23	295	0	91
23	341	0	92
23	360	0	92
23	719	0	122
23	724	0	122
23	863	0	122
23	1110	0	123
23	1304	0	124
23	1376	0	124
23	1844	0	124
23	2170	0	124
23	2180	0	124
23	2540	0	125
23	2576	0	125
23	2696	0	125
23	2810	0	125
23	3176	0	130
23	3484	0	131
23	3580	0	132
23	3600	0	132
23	4444	0	134
23	4696	0	134
23	6252	0	137
23	6320	0	137
23	6884	0	137
23	9304	0	140
23	9456	0	140
23	9472	0	140
23	10800	0	140
23	14400	0	141
23	15096	0	142
24	30	0	25
24	74	0	49
24	316	0	91
24	426	0	95
24	443	0	101
24	465	0	111
24	495	0	111
24	498	0	111
24	543	0	111
24	691	0	120
24	707	0	120
24	784	0	122
24	824	0	122
24	826	0	122
24	871	0	122
24	896	0	122
24	931	0	122
24	961	0	122
24	1402	0	124
24	1462	0	124
24	1634	0	124
24	1712	0	124
24	1718	0	124
24	2560	0	125
24	2596	0	125
24	2652	0	125
24	2722	0	125
24	3280	0	130
24	4020	0	134
24	4272	0	134
24	4344	0	134
24	4640	0	134
24	4976	0	134
24	5304	0	134
24	5968	0	134
24	6532	0	137
24	6548	0	137
24	6712	0	137
24	6840	0	137
24	8072	0	139
24	8088	0	139
24	8344	0	140
24	9080	0	140
24	10600	0	140
24	12264	0	141
24	12576	0	141
24	13064	0	141
24	13224	0	141
24	14040	0	141
24	15272	0	142
24	17032	0	142
24	17496	0	142
24	17992	0	142
24	18120	0	142
24	18328	0	142
24	19000	0	142
25	31	0	26
25	43	0	31
25	163	0	78
25	166	0	80
25	173	0	81
25	200	0	84
25	320	0	91
25	394	0	93
25	673	0	120
25	706	0	120
25	854	0	122
25	1034	0	123
25	1444	0	124
25	2286	0	124
25	2308	0	124
25	2550	0	125
25	2620	0	125
25	2738	0	125
25	3008	0	126
25	3876	0	134
25	4340	0	134
25	4856	0	134
25	4876	0	134
25	6956	0	137
25	7432	0	137
25	7528	0	138
25	9056	0	140
25	10416	0	140
25	11000	0	141
25	12792	0	141
25	12824	0	141
25	13152	0	141
25	13296	0	141
25	13880	0	141
25	15208	0	142
25	16744	0	142
25	17288	0	142
25	17560	0	142
25	18696	0	142
25	19336	0	142
25	19432	0	142
26	35	0	27
26	47	0	32
26	139	0	67
26	221	0	86
26	228	0	87
26	262	0	88
26	319	0	91
26	506	0	111
26	526	0	111
26	817	0	122
26	822	0	122
26	994	0	123
26	1088	0	123
26	1104	0	123
26	1198	0	123
26	1210	0	123
26	1300	0	124
26	1594	0	124
26	1784	0	124
26	2122	0	124
26	2214	0	124
26	2318	0	124
26	2378	0	124
26	2712	0	125
26	2774	0	125
26	2976	0	126
26	3120	0	130
26	3152	0	130
26	3248	0	130
26	3364	0	130
26	3392	0	130
26	3996	0	134
26	4240	0	134
26	4256	0	134
26	4400	0	134
26	5124	0	134
26	5168	0	134
26	5288	0	134
26	5412	0	134
26	5928	0	134
26	6228	0	137
26	6236	0	137
26	6468	0	137
26	7856	0	139
26	8128	0	139
26	8480	0	140
26	8528	0	140
26	10144	0	140
26	10344	0	140
26	10984	0	141
26	11736	0	141
26	12176	0	141
26	12240	0	141
26	12584	0	141
26	13128	0	141
26	13144	0	141
26	13288	0	141
26	13896	0	141
26	14944	0	142
26	14992	0	142
26	15160	0	142
26	15432	0	142
27	38	0	28
27	42	0	31
27	73	0	49
27	162	0	78
27	323	0	91
27	520	0	111
27	659	0	120
27	676	0	120
27	1214	0	123
27	1446	0	124
27	1636	0	124
27	2030	0	124
27	2142	0	124
27	2156	0	124
27	2208	0	124
27	2306	0	124
27	3052	0	126
27	3396	0	130
27	4204	0	134
27	4688	0	134
27	5084	0	134
27	5852	0	134
27	5948	0	134
27	7136	0	137
27	8056	0	139
27	8800	0	140
27	9072	0	140
27	10304	0	140
27	10648	0	140
27	11384	0	141
27	11400	0	141
27	12400	0	141
27	12856	0	141
27	13952	0	141
27	17384	0	142
27	17512	0	142
27	18744	0	142
27	18824	0	142
27	19304	0	142
27	19416	0	142
27	19448	0	142
28	39	0	29
28	180	0	81
28	346	0	92
28	472	0	111
28	521	0	111
28	546	0	111
28	562	0	115
28	650	0	120
28	664	0	120
28	671	0	120
28	755	0	122
28	825	0	122
28	1218	0	123
28	1400	0	124
28	1742	0	124
28	2020	0	124
28	2200	0	124
28	2354	0	124
28	2554	0	125
28	2730	0	125
28	2756	0	125
28	2892	0	126
28	2940	0	126
28	3016	0	126
28	3532	0	132
28	3944	0	134
28	4216	0	134
28	4556	0	134
28	4740	0	134
28	5576	0	134
28	5744	0	134
28	6464	0	137
28	6716	0	137
28	7232	0	137
28	7344	0	137
28	7544	0	139
28	7632	0	139
28	8808	0	140
28	8824	0	140
28	10672	0	140
28	10728	0	140
28	13936	0	141
28	14008	0	141
28	14160	0	141
28	17256	0	142
28	18360	0	142
28	18792	0	142
28	18920	0	142
29	40	0	30
29	112	0	63
29	114	0	64
29	203	0	85
29	337	0	92
29	523	0	111
29	567	0	115
29	756	0	122
29	1398	0	124
29	1696	0	124
29	1734	0	124
29	3068	0	130
29	5008	0	134
29	7160	0	137
29	7712	0	139
29	10512	0	140
29	10640	0	140
29	12832	0	141
29	12992	0	141
29	17368	0	142
29	17544	0	142
30	41	0	31
30	182	0	81
30	333	0	92
30	1016	0	123
30	1028	0	123
30	2624	0	125
30	3064	0	129
30	3412	0	131
30	3784	0	132
30	4048	0	134
30	5740	0	134
30	6384	0	137
30	6820	0	137
30	7144	0	137
30	7704	0	139
30	8112	0	139
30	9400	0	140
30	12032	0	141
30	17208	0	142
30	17304	0	142
30	19320	0	142
31	44	0	32
31	80	0	51
31	89	0	53
31	94	0	55
31	160	0	78
31	288	0	90
31	301	0	91
31	345	0	92
31	490	0	111
31	690	0	120
31	802	0	122
31	805	0	122
31	827	0	122
31	834	0	122
31	874	0	122
31	1162	0	123
31	1212	0	123
31	1252	0	123
31	2062	0	124
31	2152	0	124
31	2260	0	124
31	2988	0	126
31	3032	0	126
31	3192	0	130
31	3216	0	130
31	3368	0	130
31	3464	0	131
31	4132	0	134
31	5992	0	134
31	6052	0	134
31	6200	0	137
31	6644	0	137
31	6680	0	137
31	6952	0	137
31	6968	0	137
31	7048	0	137
31	8048	0	139
31	10976	0	141
31	11344	0	141
31	11440	0	141
31	11584	0	141
31	13256	0	141
31	13304	0	141
31	14176	0	141
31	14960	0	142
31	15000	0	142
31	15128	0	142
31	17432	0	142
31	17624	0	142
31	18392	0	142
31	18424	0	142
31	18712	0	142
31	19016	0	142
32	48	0	33
32	71	0	49
32	220	0	86
32	245	0	87
32	300	0	91
32	339	0	92
32	407	0	94
32	720	0	122
32	725	0	122
32	751	0	122
32	804	0	122
32	807	0	122
32	813	0	122
32	847	0	122
32	859	0	122
32	866	0	122
32	993	0	123
32	1100	0	123
32	1116	0	123
32	1356	0	124
32	1362	0	124
32	1590	0	124
32	1708	0	124
32	1778	0	124
32	1856	0	124
32	1898	0	124
32	1934	0	124
32	2006	0	124
32	2086	0	124
32	2332	0	124
32	2348	0	124
32	2414	0	124
32	3564	0	132
32	3732	0	132
32	5020	0	134
32	5380	0	134
32	5392	0	134
32	5712	0	134
32	6492	0	137
32	6768	0	137
32	6804	0	137
32	7936	0	139
32	8648	0	140
32	8888	0	140
32	9136	0	140
32	10232	0	140
32	10328	0	140
32	11712	0	141
32	11832	0	141
32	12720	0	141
32	13280	0	141
32	14536	0	141
32	15560	0	142
32	17784	0	142
32	17896	0	142
32	18888	0	142
33	50	0	34
33	84	0	52
33	86	0	53
33	105	0	59
33	141	0	67
33	297	0	91
33	423	0	95
33	737	0	122
33	775	0	122
33	862	0	122
33	1114	0	123
33	1268	0	123
33	1660	0	124
33	2050	0	124
33	2336	0	124
33	2408	0	124
33	2826	0	125
33	3480	0	131
33	4072	0	134
33	4292	0	134
33	4484	0	134
33	5784	0	134
33	6168	0	137
33	6788	0	137
33	8416	0	140
33	8720	0	140
33	9520	0	140
33	12672	0	141
34	51	0	35
34	65	0	45
34	189	0	83
34	192	0	83
34	249	0	87
34	505	0	111
34	716	0	122
34	860	0	122
34	939	0	122
34	1238	0	123
34	1264	0	123
34	1598	0	124
34	1892	0	124
34	2220	0	124
34	2312	0	124
34	2448	0	124
34	2452	0	124
34	2928	0	126
34	2964	0	126
34	3644	0	132
34	3652	0	132
34	3728	0	132
34	4116	0	134
34	4416	0	134
34	4944	0	134
34	5016	0	134
34	5064	0	134
34	5072	0	134
34	5688	0	134
34	5732	0	134
34	6148	0	137
34	6212	0	137
34	6604	0	137
34	6864	0	137
34	6972	0	137
34	8192	0	139
34	8296	0	140
34	9832	0	140
34	10112	0	140
34	11016	0	141
34	11032	0	141
34	12664	0	141
34	12680	0	141
34	14968	0	142
34	15592	0	142
34	17336	0	142
34	19784	0	142
35	52	0	36
35	137	0	67
35	358	0	92
35	475	0	111
35	692	0	120
35	703	0	120
35	709	0	120
35	733	0	122
35	855	0	122
35	918	0	122
35	1070	0	123
35	1138	0	123
35	1352	0	124
35	1910	0	124
35	2022	0	124
35	2040	0	124
35	2310	0	124
35	2982	0	126
35	3572	0	132
35	3756	0	132
35	3992	0	134
35	4420	0	134
35	4436	0	134
35	4540	0	134
35	4956	0	134
35	5088	0	134
35	5096	0	134
35	5752	0	134
35	5952	0	134
35	6096	0	137
35	6240	0	137
35	6928	0	137
35	7304	0	137
35	7336	0	137
35	7776	0	139
35	7832	0	139
35	8080	0	139
35	8664	0	140
35	8848	0	140
35	9856	0	140
35	11744	0	141
35	11880	0	141
35	12352	0	141
35	12520	0	141
35	12752	0	141
35	12968	0	141
35	13024	0	141
35	14376	0	141
35	14584	0	141
35	15416	0	142
35	16664	0	142
35	16776	0	142
35	16840	0	142
35	18936	0	142
35	19160	0	142
36	53	0	37
36	116	0	64
36	197	0	83
36	330	0	91
36	710	0	120
36	809	0	122
36	823	0	122
36	870	0	122
36	1746	0	124
36	1860	0	124
36	2012	0	124
36	2244	0	124
36	2544	0	125
36	2614	0	125
36	2672	0	125
36	2784	0	125
36	2944	0	126
36	3044	0	126
36	5132	0	134
36	5364	0	134
36	5416	0	134
36	6124	0	137
36	6700	0	137
36	6944	0	137
36	7416	0	137
36	7520	0	137
36	7976	0	139
36	8000	0	139
36	8512	0	140
36	9336	0	140
36	9416	0	140
36	9776	0	140
36	11624	0	141
36	14712	0	141
36	14848	0	142
36	16680	0	142
37	54	0	38
37	133	0	65
37	236	0	87
37	241	0	87
37	284	0	89
37	348	0	92
37	482	0	111
37	502	0	111
37	801	0	122
37	962	0	122
37	1056	0	123
37	1250	0	123
37	1434	0	124
37	1704	0	124
37	1802	0	124
37	1842	0	124
37	2172	0	124
37	2262	0	124
37	2528	0	125
37	2592	0	125
37	2688	0	125
37	2842	0	125
37	3172	0	130
37	3856	0	134
37	4144	0	134
37	4276	0	134
37	4284	0	134
37	4492	0	134
37	5156	0	134
37	6204	0	137
37	6400	0	137
37	6988	0	137
37	11416	0	141
37	11488	0	141
37	11552	0	141
37	11936	0	141
37	12168	0	141
37	12448	0	141
37	12880	0	141
37	13248	0	141
37	13312	0	141
37	14056	0	141
37	14568	0	141
37	17048	0	142
37	19912	0	142
37	20232	0	142
38	55	0	39
38	148	0	71
38	202	0	85
38	304	0	91
38	382	0	93
38	418	0	95
38	474	0	111
38	711	0	120
38	757	0	122
38	1196	0	123
38	1640	0	124
38	1694	0	124
38	1882	0	124
38	2100	0	124
38	2304	0	124
38	2320	0	124
38	2384	0	124
38	2530	0	125
38	2660	0	125
38	2868	0	125
38	3736	0	132
38	3788	0	132
38	4136	0	134
38	4672	0	134
38	6004	0	134
38	6364	0	137
38	6420	0	137
38	6828	0	137
38	6976	0	137
38	7424	0	137
38	7640	0	139
38	7808	0	139
38	8504	0	140
38	8688	0	140
38	9384	0	140
38	10080	0	140
38	10128	0	140
38	10376	0	140
38	10544	0	140
38	10968	0	141
38	11456	0	141
38	11784	0	141
38	12272	0	141
38	12568	0	141
38	12872	0	141
38	12960	0	141
38	13048	0	141
38	14616	0	141
38	17144	0	142
39	56	0	40
39	247	0	87
39	270	0	89
39	412	0	94
39	425	0	95
39	497	0	111
39	501	0	111
39	540	0	111
39	708	0	120
39	761	0	122
39	810	0	122
39	955	0	122
39	1614	0	124
39	1800	0	124
39	1920	0	124
39	2074	0	124
39	2224	0	124
39	2258	0	124
39	2264	0	124
39	2302	0	124
39	2390	0	124
39	2684	0	125
39	2798	0	125
39	2822	0	125
39	3424	0	131
39	4452	0	134
39	4496	0	134
39	4520	0	134
39	4972	0	134
39	5044	0	134
39	5056	0	134
39	5292	0	134
39	5368	0	134
39	5408	0	134
39	6500	0	137
39	6640	0	137
39	9432	0	140
39	9872	0	140
39	10272	0	140
39	10792	0	140
39	12488	0	141
39	12616	0	141
39	13552	0	141
39	13648	0	141
39	14776	0	141
39	15384	0	142
39	15640	0	142
39	19048	0	142
39	19272	0	142
40	57	0	41
40	131	0	65
40	229	0	87
40	287	0	90
40	289	0	90
40	511	0	111
40	541	0	111
40	760	0	122
40	830	0	122
40	1130	0	123
40	1318	0	124
40	1490	0	124
40	1612	0	124
40	1792	0	124
40	1830	0	124
40	1912	0	124
40	2058	0	124
40	2186	0	124
40	2360	0	124
40	2634	0	125
40	3040	0	126
40	3380	0	130
40	3436	0	131
40	4432	0	134
40	4464	0	134
40	5256	0	134
40	6244	0	137
40	7064	0	137
40	8008	0	139
40	8208	0	139
40	10040	0	140
40	10064	0	140
40	11944	0	141
40	12624	0	141
40	13584	0	141
40	13672	0	141
40	14384	0	141
40	14448	0	141
40	15144	0	142
40	15240	0	142
40	15656	0	142
40	19208	0	142
41	59	0	42
41	75	0	49
41	77	0	49
41	81	0	51
41	195	0	83
41	256	0	88
41	276	0	89
41	429	0	95
41	698	0	120
41	730	0	122
41	732	0	122
41	771	0	122
41	779	0	122
41	944	0	122
41	1194	0	123
41	1616	0	124
41	1650	0	124
41	1748	0	124
41	1918	0	124
41	2182	0	124
41	2292	0	124
41	2404	0	124
41	2664	0	125
41	2792	0	125
41	3180	0	130
41	3276	0	130
41	3300	0	130
41	3376	0	130
41	3388	0	130
41	4512	0	134
41	4544	0	134
41	5916	0	134
41	6256	0	137
41	6348	0	137
41	6424	0	137
41	7112	0	137
41	7840	0	139
41	7992	0	139
41	8912	0	140
41	9160	0	140
41	10264	0	140
41	10592	0	140
41	12552	0	141
41	12936	0	141
41	13920	0	141
41	14512	0	141
41	14528	0	141
41	14632	0	141
41	14808	0	142
41	14824	0	142
41	17480	0	142
41	18040	0	142
41	18488	0	142
42	62	0	43
42	364	0	93
42	947	0	122
42	1664	0	124
42	1760	0	124
42	1770	0	124
42	3624	0	132
42	3636	0	132
42	5772	0	134
42	5788	0	134
42	5820	0	134
42	6332	0	137
42	11048	0	141
42	14424	0	141
42	17688	0	142
43	63	0	44
43	144	0	69
43	217	0	86
43	478	0	111
43	865	0	122
43	1118	0	123
43	1270	0	123
43	1306	0	124
43	1310	0	124
43	1328	0	124
43	1588	0	124
43	1848	0	124
43	2112	0	124
43	2338	0	124
43	2426	0	124
43	3592	0	132
43	5768	0	134
43	5828	0	134
43	6732	0	137
43	6744	0	137
43	6772	0	137
43	8376	0	140
43	11056	0	141
43	14432	0	141
43	14600	0	141
44	64	0	45
44	212	0	86
44	250	0	87
44	370	0	93
44	377	0	93
44	386	0	93
44	493	0	111
44	699	0	120
44	821	0	122
44	858	0	122
44	953	0	122
44	1648	0	124
44	1750	0	124
44	1774	0	124
44	2046	0	124
44	2110	0	124
44	2136	0	124
44	2342	0	124
44	2960	0	126
44	3360	0	130
44	3476	0	131
44	4916	0	134
44	5052	0	134
44	5164	0	134
44	5344	0	134
44	5588	0	134
44	5724	0	134
44	6036	0	134
44	6188	0	137
44	6312	0	137
44	6428	0	137
44	6668	0	137
44	6892	0	137
44	6992	0	137
44	7464	0	137
44	7760	0	139
44	8872	0	140
44	10256	0	140
44	10816	0	140
44	11064	0	141
44	12608	0	141
44	12688	0	141
44	14136	0	141
44	19944	0	142
45	66	0	46
45	127	0	64
45	147	0	71
45	207	0	85
45	210	0	86
45	343	0	92
45	355	0	92
45	536	0	111
45	729	0	122
45	850	0	122
45	945	0	122
45	1240	0	123
45	1314	0	124
45	1364	0	124
45	1380	0	124
45	1386	0	124
45	1642	0	124
45	2076	0	124
45	2274	0	124
45	2800	0	125
45	2806	0	125
45	2828	0	125
45	2872	0	125
45	2876	0	125
45	3116	0	130
45	3556	0	132
45	4160	0	134
45	4320	0	134
45	4548	0	134
45	5296	0	134
45	6368	0	137
45	6488	0	137
45	6616	0	137
45	7728	0	139
45	8384	0	140
45	8440	0	140
45	9128	0	140
45	10472	0	140
45	11352	0	141
45	12712	0	141
45	13192	0	141
45	14872	0	142
45	15080	0	142
45	15336	0	142
45	17656	0	142
45	19848	0	142
46	68	0	47
46	311	0	91
46	378	0	93
46	509	0	111
46	535	0	111
46	739	0	122
46	752	0	122
46	788	0	122
46	842	0	122
46	845	0	122
46	1042	0	123
46	1158	0	123
46	1752	0	124
46	1868	0	124
46	2226	0	124
46	2396	0	124
46	2442	0	124
46	2746	0	125
46	2808	0	125
46	2878	0	126
46	3264	0	130
46	3284	0	130
46	3840	0	132
46	3932	0	134
46	3976	0	134
46	4236	0	134
46	4368	0	134
46	5932	0	134
46	5984	0	134
46	6476	0	137
46	6812	0	137
46	6856	0	137
46	6872	0	137
46	6900	0	137
46	7088	0	137
46	7296	0	137
46	8616	0	140
46	8896	0	140
46	10752	0	140
46	11464	0	141
46	11576	0	141
46	12928	0	141
46	13032	0	141
46	17448	0	142
46	19368	0	142
46	19992	0	142
46	20056	0	142
47	69	0	48
47	97	0	56
47	123	0	64
47	158	0	78
47	231	0	87
47	233	0	87
47	310	0	91
47	357	0	92
47	431	0	95
47	487	0	111
47	489	0	111
47	630	0	120
47	634	0	120
47	637	0	120
47	679	0	120
47	759	0	122
47	828	0	122
47	868	0	122
47	872	0	122
47	876	0	122
47	919	0	122
47	965	0	122
47	1142	0	123
47	1172	0	123
47	1432	0	124
47	1506	0	124
47	1546	0	124
47	1794	0	124
47	1938	0	124
47	1946	0	124
47	2184	0	124
47	2398	0	124
47	2458	0	124
47	2602	0	125
47	2654	0	125
47	3372	0	130
47	3844	0	133
47	3916	0	134
47	4228	0	134
47	4632	0	134
47	5976	0	134
47	6108	0	137
47	6116	0	137
47	6648	0	137
47	9024	0	140
47	9648	0	140
47	12216	0	141
47	12328	0	141
47	13704	0	141
47	14360	0	141
47	14520	0	141
47	14736	0	141
47	14816	0	142
47	17464	0	142
47	17608	0	142
47	19144	0	142
48	70	0	49
48	72	0	49
48	119	0	64
48	248	0	87
48	252	0	87
48	259	0	88
48	329	0	91
48	485	0	111
48	528	0	111
48	800	0	122
48	819	0	122
48	844	0	122
48	935	0	122
48	959	0	122
48	1166	0	123
48	1206	0	123
48	1390	0	124
48	1438	0	124
48	1690	0	124
48	1900	0	124
48	2202	0	124
48	2228	0	124
48	2328	0	124
48	2364	0	124
48	2740	0	125
48	3208	0	130
48	3232	0	130
48	3340	0	130
48	3452	0	131
48	3552	0	132
48	3928	0	134
48	4224	0	134
48	4392	0	134
48	4456	0	134
48	5896	0	134
48	6044	0	134
48	6876	0	137
48	6912	0	137
48	6984	0	137
48	7248	0	137
48	7408	0	137
48	7848	0	139
48	10312	0	140
48	11120	0	141
48	12296	0	141
48	12312	0	141
48	13328	0	141
48	15224	0	142
48	15512	0	142
48	16872	0	142
48	17160	0	142
49	78	0	50
49	121	0	64
49	253	0	87
49	264	0	88
49	416	0	95
49	424	0	95
49	503	0	111
49	653	0	120
49	701	0	120
49	745	0	122
49	815	0	122
49	864	0	122
49	956	0	122
49	996	0	123
49	1066	0	123
49	1112	0	123
49	1132	0	123
49	1266	0	123
49	1322	0	124
49	1436	0	124
49	1578	0	124
49	1606	0	124
49	1924	0	124
49	2080	0	124
49	2126	0	124
49	2188	0	124
49	2294	0	124
49	2350	0	124
49	2588	0	125
49	2678	0	125
49	2900	0	126
49	3136	0	130
49	3228	0	130
49	3352	0	130
49	3468	0	131
49	3488	0	131
49	3772	0	132
49	3968	0	134
49	4140	0	134
49	4148	0	134
49	4288	0	134
49	4324	0	134
49	4412	0	134
49	5760	0	134
49	6000	0	134
49	6408	0	137
49	8856	0	140
49	9176	0	140
49	9600	0	140
49	9816	0	140
49	10784	0	140
49	11168	0	141
49	14920	0	142
49	14976	0	142
49	15576	0	142
49	18200	0	142
50	79	0	51
50	225	0	86
50	238	0	87
50	243	0	87
50	342	0	92
50	464	0	111
50	483	0	111
50	765	0	122
50	772	0	122
50	964	0	122
50	1170	0	123
50	1248	0	123
50	1320	0	124
50	1458	0	124
50	1602	0	124
50	1786	0	124
50	1824	0	124
50	1858	0	124
50	1876	0	124
50	2004	0	124
50	2240	0	124
50	2380	0	124
50	2456	0	124
50	2618	0	125
50	2630	0	125
50	2708	0	125
50	2748	0	125
50	2778	0	125
50	2990	0	126
50	3096	0	130
50	4004	0	134
50	4232	0	134
50	4676	0	134
50	4700	0	134
50	5584	0	134
50	5680	0	134
50	5696	0	134
50	5996	0	134
50	6496	0	137
50	6564	0	137
50	6632	0	137
50	6720	0	137
50	6948	0	137
50	8064	0	139
50	8200	0	139
50	8552	0	140
50	8760	0	140
50	11152	0	141
50	11432	0	141
50	11504	0	141
50	11568	0	141
50	11728	0	141
50	11888	0	141
50	11984	0	141
50	12416	0	141
50	12600	0	141
50	12744	0	141
50	13072	0	141
50	14048	0	141
50	14064	0	141
50	15016	0	142
50	15352	0	142
50	17592	0	142
50	18856	0	142
51	83	0	52
51	290	0	90
51	340	0	92
51	369	0	93
51	375	0	93
51	428	0	95
51	1192	0	123
51	1624	0	124
51	1764	0	124
51	1864	0	124
51	1930	0	124
51	2042	0	124
51	2072	0	124
51	2116	0	124
51	2146	0	124
51	2316	0	124
51	2662	0	125
51	2682	0	125
51	2870	0	125
51	2952	0	126
51	2984	0	126
51	3140	0	130
51	3296	0	130
51	3544	0	132
51	4056	0	134
51	4104	0	134
51	5172	0	134
51	6040	0	134
51	6132	0	137
51	6164	0	137
51	6308	0	137
51	6480	0	137
51	6620	0	137
51	6656	0	137
51	7000	0	137
51	7824	0	139
51	8304	0	140
51	8456	0	140
51	8728	0	140
51	8936	0	140
51	8952	0	140
51	9120	0	140
51	10224	0	140
51	10280	0	140
51	11704	0	141
51	12320	0	141
51	12656	0	141
51	12952	0	141
51	13104	0	141
51	14104	0	141
51	14576	0	141
51	14648	0	141
51	14952	0	142
51	15304	0	142
51	18216	0	142
51	19064	0	142
52	85	0	53
52	219	0	86
52	700	0	120
52	722	0	122
52	946	0	122
52	1280	0	123
52	1580	0	124
52	1776	0	124
52	2416	0	124
52	2582	0	125
52	2700	0	125
52	3588	0	132
52	5720	0	134
52	7744	0	139
52	9264	0	140
52	9488	0	140
52	9536	0	140
52	9608	0	140
52	10808	0	140
52	14416	0	141
52	17752	0	142
53	90	0	54
53	135	0	66
53	273	0	89
53	317	0	91
53	326	0	91
53	468	0	111
53	473	0	111
53	524	0	111
53	565	0	115
53	663	0	120
53	696	0	120
53	799	0	122
53	1014	0	123
53	1048	0	123
53	1136	0	123
53	1450	0	124
53	1502	0	124
53	2204	0	124
53	2548	0	125
53	2710	0	125
53	2724	0	125
53	2752	0	125
53	2818	0	125
53	2942	0	126
53	3092	0	130
53	3104	0	130
53	3884	0	134
53	3952	0	134
53	4868	0	134
53	5892	0	134
53	6512	0	137
53	9224	0	140
53	10440	0	140
53	10504	0	140
53	10520	0	140
53	10632	0	140
53	10688	0	140
53	11376	0	141
53	12408	0	141
53	12864	0	141
53	13000	0	141
53	13632	0	141
53	13992	0	141
53	19512	0	142
54	93	0	55
54	271	0	89
54	312	0	91
54	349	0	92
54	414	0	94
54	422	0	95
54	479	0	111
54	668	0	120
54	954	0	122
54	998	0	123
54	1062	0	123
54	1388	0	124
54	1870	0	124
54	1906	0	124
54	2124	0	124
54	2166	0	124
54	2178	0	124
54	2276	0	124
54	2454	0	124
54	2532	0	125
54	2608	0	125
54	2666	0	125
54	2966	0	126
54	3292	0	130
54	3492	0	131
54	3860	0	134
54	4172	0	134
54	4376	0	134
54	5100	0	134
54	5348	0	134
54	6140	0	137
54	6184	0	137
54	6196	0	137
54	6284	0	137
54	6776	0	137
54	7264	0	137
54	7880	0	139
54	8576	0	140
54	9152	0	140
54	9616	0	140
54	9736	0	140
54	9848	0	140
54	11872	0	141
54	12000	0	141
54	12440	0	141
54	13656	0	141
54	14504	0	141
54	14608	0	141
54	15032	0	142
54	15112	0	142
54	17944	0	142
54	18472	0	142
55	95	0	56
55	410	0	94
55	758	0	122
55	762	0	122
55	786	0	122
55	852	0	122
55	995	0	123
55	1038	0	123
55	1092	0	123
55	1102	0	123
55	1354	0	124
55	1468	0	124
55	2068	0	124
55	2524	0	125
55	2640	0	125
55	2658	0	125
55	2772	0	125
55	2814	0	125
55	3144	0	130
55	3196	0	130
55	3764	0	132
55	4080	0	134
55	4616	0	134
55	4904	0	134
55	5372	0	134
55	5900	0	134
55	5964	0	134
55	6264	0	137
55	6624	0	137
55	6708	0	137
55	7904	0	139
55	8040	0	139
55	8352	0	140
55	9352	0	140
55	9888	0	140
55	11160	0	141
55	11592	0	141
55	11840	0	141
55	12336	0	141
55	13080	0	141
55	14656	0	141
55	16696	0	142
55	17064	0	142
55	17864	0	142
56	98	0	57
56	126	0	64
56	215	0	86
56	251	0	87
56	265	0	88
56	275	0	89
56	356	0	92
56	437	0	98
56	753	0	122
56	812	0	122
56	997	0	123
56	1128	0	123
56	1286	0	123
56	1302	0	124
56	1348	0	124
56	1460	0	124
56	1814	0	124
56	2044	0	124
56	2108	0	124
56	2216	0	124
56	2522	0	125
56	2538	0	125
56	2668	0	125
56	2834	0	125
56	2916	0	126
56	3124	0	130
56	3184	0	130
56	3896	0	134
56	3960	0	134
56	4268	0	134
56	4364	0	134
56	4500	0	134
56	4704	0	134
56	4968	0	134
56	5352	0	134
56	5936	0	134
56	6048	0	134
56	6092	0	136
56	6112	0	137
56	6120	0	137
56	6372	0	137
56	6684	0	137
56	9016	0	140
56	10320	0	140
56	10400	0	140
56	10616	0	140
56	11424	0	141
56	11480	0	141
56	11536	0	141
56	14896	0	142
56	15048	0	142
56	19080	0	142
56	19960	0	142
57	100	0	58
57	269	0	89
57	291	0	90
57	411	0	94
57	438	0	98
57	517	0	111
57	519	0	111
57	530	0	111
57	570	0	115
57	916	0	122
57	1050	0	123
57	1106	0	123
57	1190	0	123
57	1466	0	124
57	1818	0	124
57	1836	0	124
57	1866	0	124
57	1922	0	124
57	2070	0	124
57	2296	0	124
57	2896	0	126
57	3004	0	126
57	3776	0	132
57	3900	0	134
57	3980	0	134
57	4108	0	134
57	4180	0	134
57	4188	0	134
57	4592	0	134
57	4708	0	134
57	5260	0	134
57	5956	0	134
57	5972	0	134
57	5980	0	134
57	6536	0	137
57	8160	0	139
57	9640	0	140
57	9664	0	140
57	11560	0	141
57	11752	0	141
57	12232	0	141
57	14096	0	141
57	14480	0	141
57	14552	0	141
57	14832	0	142
57	15368	0	142
57	17016	0	142
57	18568	0	142
57	19256	0	142
57	19480	0	142
58	104	0	59
58	281	0	89
58	849	0	122
58	1478	0	124
58	1618	0	124
58	3800	0	132
58	5912	0	134
58	6448	0	137
58	6484	0	137
58	15320	0	142
59	106	0	60
59	363	0	93
59	749	0	122
59	1672	0	124
59	2580	0	125
59	2698	0	125
59	3604	0	132
59	3616	0	132
59	3632	0	132
59	4312	0	134
59	4920	0	134
59	6784	0	137
59	9256	0	140
59	12696	0	141
60	108	0	61
60	128	0	64
60	390	0	93
60	537	0	111
60	1762	0	124
60	2236	0	124
60	3596	0	132
60	3608	0	132
60	5112	0	134
60	5780	0	134
60	6740	0	137
60	6920	0	137
60	6996	0	137
60	7472	0	137
60	7736	0	139
60	9248	0	140
60	9496	0	140
60	10160	0	140
60	10360	0	140
60	14928	0	142
60	18280	0	142
61	110	0	62
61	124	0	64
61	174	0	81
61	244	0	87
61	279	0	89
61	514	0	111
61	791	0	122
61	808	0	122
61	814	0	122
61	853	0	122
61	915	0	122
61	999	0	123
61	1126	0	123
61	1222	0	123
61	1488	0	124
61	1744	0	124
61	1816	0	124
61	2082	0	124
61	2092	0	124
61	2326	0	124
61	2356	0	124
61	2382	0	124
61	2520	0	125
61	2564	0	125
61	2600	0	125
61	2642	0	125
61	2726	0	125
61	2840	0	125
61	2914	0	126
61	2970	0	126
61	3504	0	131
61	3940	0	134
61	4112	0	134
61	4244	0	134
61	4948	0	134
61	4984	0	134
61	5376	0	134
61	6696	0	137
61	6724	0	137
61	7032	0	137
61	8632	0	140
61	8744	0	140
61	9040	0	140
61	9624	0	140
61	10624	0	140
61	11616	0	141
61	11648	0	141
61	11976	0	141
61	12208	0	141
61	12456	0	141
61	12816	0	141
61	13576	0	141
61	14072	0	141
61	14184	0	141
61	14688	0	141
61	15496	0	142
61	18440	0	142
61	20072	0	142
62	111	0	63
62	171	0	81
62	315	0	91
62	318	0	91
62	325	0	91
62	351	0	92
62	563	0	115
62	649	0	120
62	655	0	120
62	741	0	122
62	1396	0	124
62	1464	0	124
62	2434	0	124
62	2934	0	126
62	4036	0	134
62	5184	0	134
62	5320	0	134
62	7192	0	137
62	7240	0	137
62	8976	0	140
62	10496	0	140
62	10528	0	140
62	11304	0	141
62	11608	0	141
62	13056	0	141
62	15448	0	142
62	15480	0	142
62	17128	0	142
62	17224	0	142
62	18664	0	142
63	113	0	64
63	186	0	83
63	314	0	91
63	656	0	120
63	1030	0	123
63	3072	0	130
63	3664	0	132
63	4208	0	134
63	4940	0	134
63	5004	0	134
63	5012	0	134
63	5848	0	134
63	7648	0	139
63	8288	0	139
63	11296	0	141
63	11792	0	141
63	12984	0	141
63	15464	0	142
63	17320	0	142
63	18600	0	142
63	19656	0	142
64	130	0	65
64	224	0	86
64	230	0	87
64	237	0	87
64	344	0	92
64	396	0	93
64	398	0	93
64	417	0	95
64	704	0	120
64	793	0	122
64	1078	0	123
64	1108	0	123
64	1258	0	123
64	1290	0	123
64	1678	0	124
64	2106	0	124
64	2198	0	124
64	2206	0	124
64	2254	0	124
64	2394	0	124
64	2744	0	125
64	2890	0	126
64	3108	0	130
64	3164	0	130
64	3268	0	130
64	3332	0	130
64	3472	0	131
64	3576	0	132
64	4652	0	134
64	4684	0	134
64	5048	0	134
64	5120	0	134
64	5160	0	134
64	5332	0	134
64	5396	0	134
64	5700	0	134
64	5940	0	134
64	6024	0	134
64	6288	0	137
64	6516	0	137
64	7128	0	137
64	8544	0	140
64	8904	0	140
64	9008	0	140
64	9592	0	140
64	9760	0	140
64	10136	0	140
64	10216	0	140
64	10576	0	140
64	11360	0	141
64	11512	0	141
64	13592	0	141
64	13960	0	141
64	14800	0	142
64	15400	0	142
64	18136	0	142
65	134	0	66
65	272	0	89
65	308	0	91
65	322	0	91
65	347	0	92
65	376	0	93
65	404	0	94
65	494	0	111
65	667	0	120
65	735	0	122
65	773	0	122
65	831	0	122
65	843	0	122
65	913	0	122
65	920	0	122
65	1202	0	123
65	1208	0	123
65	1216	0	123
65	1224	0	123
65	1346	0	124
65	1482	0	124
65	1574	0	124
65	1700	0	124
65	1838	0	124
65	2018	0	124
65	2120	0	124
65	2196	0	124
65	2268	0	124
65	2430	0	124
65	2574	0	125
65	2586	0	125
65	2790	0	125
65	2804	0	125
65	2978	0	126
65	3260	0	130
65	3448	0	131
65	4084	0	134
65	4600	0	134
65	4648	0	134
65	4892	0	134
65	5128	0	134
65	5176	0	134
65	5300	0	134
65	5388	0	134
65	6008	0	134
65	6276	0	137
65	6304	0	137
65	6524	0	137
65	6844	0	137
65	7216	0	137
65	7328	0	137
65	7368	0	137
65	8328	0	140
65	8832	0	140
65	9096	0	140
65	9216	0	140
65	9232	0	140
65	9440	0	140
65	9744	0	140
65	11320	0	141
65	11640	0	141
65	11672	0	141
65	11904	0	141
65	12472	0	141
65	13904	0	141
65	15608	0	142
65	16936	0	142
65	17400	0	142
65	18728	0	142
65	19288	0	142
65	19352	0	142
65	19896	0	142
66	136	0	67
66	150	0	72
66	258	0	88
66	260	0	88
66	372	0	93
66	533	0	111
66	632	0	120
66	669	0	120
66	768	0	122
66	778	0	122
66	873	0	122
66	1358	0	124
66	1486	0	124
66	1500	0	124
66	1600	0	124
66	1706	0	124
66	1720	0	124
66	1788	0	124
66	2288	0	124
66	2570	0	125
66	2954	0	126
66	2986	0	126
66	3168	0	130
66	3920	0	134
66	3988	0	134
66	4008	0	134
66	4016	0	134
66	4504	0	134
66	4636	0	134
66	5268	0	134
66	5384	0	134
66	5924	0	134
66	6268	0	137
66	6300	0	137
66	6652	0	137
66	6824	0	137
66	7176	0	137
66	7928	0	139
66	8152	0	139
66	9392	0	140
66	9728	0	140
66	9800	0	140
66	9864	0	140
66	10296	0	140
66	10408	0	140
66	11408	0	141
66	11472	0	141
66	12424	0	141
66	12768	0	141
66	13160	0	141
66	13568	0	141
66	13944	0	141
66	17960	0	142
66	18008	0	142
66	19800	0	142
67	142	0	68
67	748	0	122
67	1274	0	123
67	1332	0	124
67	1582	0	124
67	2422	0	124
67	2924	0	126
67	5796	0	134
67	6612	0	137
67	7488	0	137
67	9288	0	140
67	9560	0	140
67	17704	0	142
67	17736	0	142
68	143	0	69
68	218	0	86
68	298	0	91
68	366	0	93
68	1276	0	123
68	1330	0	124
68	1586	0	124
68	1662	0	124
68	1668	0	124
68	3812	0	132
68	4296	0	134
68	6328	0	137
68	6592	0	137
68	9272	0	140
68	9528	0	140
68	9552	0	140
69	145	0	70
69	367	0	93
69	747	0	122
69	949	0	122
69	1374	0	124
69	1644	0	124
69	1772	0	124
69	2340	0	124
69	3612	0	132
69	4156	0	134
69	4316	0	134
69	4928	0	134
69	5108	0	134
69	5792	0	134
69	5836	0	134
69	6588	0	137
69	8392	0	140
69	9480	0	140
70	146	0	71
70	361	0	92
70	365	0	93
70	950	0	122
70	952	0	122
70	1120	0	123
70	1272	0	123
70	1366	0	124
70	1372	0	124
70	1378	0	124
70	1646	0	124
70	2134	0	124
70	2234	0	124
70	2904	0	126
70	4304	0	134
70	4924	0	134
70	5804	0	134
70	6336	0	137
70	6792	0	137
70	6888	0	137
70	7480	0	137
70	7672	0	139
70	8400	0	140
70	9296	0	140
70	17720	0	142
71	149	0	72
71	561	0	115
71	633	0	120
71	648	0	120
71	687	0	120
71	912	0	122
71	989	0	123
71	991	0	123
71	1082	0	123
71	1350	0	124
71	1440	0	124
71	1654	0	124
71	1702	0	124
71	2002	0	124
71	2376	0	124
71	2432	0	124
71	2536	0	125
71	2728	0	125
71	2750	0	125
71	2794	0	125
71	2880	0	126
71	2912	0	126
71	2992	0	126
71	3088	0	130
71	4252	0	134
71	4536	0	134
71	4620	0	134
71	5180	0	134
71	6060	0	134
71	6376	0	137
71	7104	0	137
71	7392	0	137
71	7800	0	139
71	8680	0	140
71	8704	0	140
71	8920	0	140
71	9000	0	140
71	9320	0	140
71	9880	0	140
71	9896	0	140
71	10032	0	140
71	10536	0	140
71	10736	0	140
71	11912	0	141
71	11952	0	141
71	12160	0	141
71	12192	0	141
71	12392	0	141
71	13008	0	141
71	13336	0	141
71	15688	0	142
71	18088	0	142
71	19128	0	142
71	19816	0	142
72	151	0	73
72	194	0	83
72	277	0	89
72	436	0	98
72	542	0	111
72	631	0	120
72	929	0	122
72	966	0	122
72	1040	0	123
72	1140	0	123
72	1156	0	123
72	1626	0	124
72	1804	0	124
72	2568	0	125
72	2604	0	125
72	2742	0	125
72	2994	0	126
72	6504	0	137
72	6932	0	137
72	6940	0	137
72	7080	0	137
72	7400	0	137
72	8672	0	140
72	9328	0	140
72	10200	0	140
72	10584	0	140
72	11088	0	141
72	11136	0	141
72	12288	0	141
72	13088	0	141
72	13536	0	141
72	14640	0	141
72	14768	0	141
73	152	0	74
73	154	0	75
73	286	0	90
73	432	0	95
73	586	0	117
73	636	0	120
73	645	0	120
73	886	0	122
73	925	0	122
73	968	0	122
73	1528	0	124
73	1534	0	124
73	1558	0	124
73	1630	0	124
73	1956	0	124
73	2506	0	125
73	5252	0	134
73	5556	0	134
73	13416	0	141
73	13504	0	141
73	14248	0	141
73	14760	0	141
73	15736	0	142
73	16168	0	142
73	16296	0	142
73	16392	0	142
74	153	0	75
74	928	0	122
74	1174	0	123
74	1430	0	124
74	1516	0	124
74	1522	0	124
74	1548	0	124
74	1628	0	124
74	16504	0	142
75	155	0	76
75	557	0	114
75	581	0	117
75	597	0	119
75	601	0	120
75	612	0	120
75	617	0	120
75	888	0	122
75	1176	0	123
75	1412	0	124
75	1564	0	124
75	1960	0	124
75	2484	0	125
75	3912	0	134
75	4756	0	134
75	5244	0	134
75	5428	0	134
75	5452	0	134
75	5528	0	134
75	13464	0	141
75	15960	0	142
75	16328	0	142
75	16408	0	142
76	156	0	77
76	402	0	94
76	441	0	100
76	549	0	111
76	591	0	119
76	605	0	120
76	607	0	120
76	879	0	122
76	985	0	123
76	1182	0	123
76	1994	0	124
76	5476	0	134
76	5544	0	134
76	5552	0	134
76	6080	0	134
76	7576	0	139
76	13736	0	141
76	14256	0	141
76	16584	0	142
77	157	0	78
77	393	0	93
77	629	0	120
77	678	0	120
77	869	0	122
77	907	0	122
77	1404	0	124
77	1504	0	124
77	1530	0	124
77	1554	0	124
77	1568	0	124
77	1632	0	124
77	1952	0	124
77	2246	0	124
77	2508	0	125
77	2758	0	125
77	2766	0	125
77	2848	0	125
77	2852	0	125
77	3904	0	134
77	4024	0	134
77	4628	0	134
77	4712	0	134
77	4720	0	134
77	4752	0	134
77	4832	0	134
77	4848	0	134
77	5136	0	134
77	5144	0	134
77	5196	0	134
77	5420	0	134
77	5432	0	134
77	5864	0	134
77	12224	0	141
77	13976	0	141
77	15832	0	142
77	16600	0	142
77	17272	0	142
78	164	0	79
78	170	0	81
78	564	0	115
78	662	0	120
78	674	0	120
78	1024	0	123
78	2856	0	125
78	3080	0	130
78	3948	0	134
78	4028	0	134
78	4560	0	134
78	4716	0	134
78	4844	0	134
78	5860	0	134
78	5888	0	134
78	7552	0	139
78	8784	0	140
78	8984	0	140
78	10424	0	140
78	14000	0	141
78	18776	0	142
79	165	0	80
79	168	0	81
79	172	0	81
79	199	0	84
79	335	0	92
79	471	0	111
79	660	0	120
79	1008	0	123
79	1020	0	123
79	1448	0	124
79	2552	0	125
79	2858	0	125
79	2862	0	125
79	3056	0	127
79	3400	0	130
79	3880	0	134
79	4040	0	134
79	4872	0	134
79	9064	0	140
79	10432	0	140
79	10712	0	140
79	12800	0	141
79	12848	0	141
79	13872	0	141
79	18648	0	142
79	18680	0	142
79	18760	0	142
80	167	0	81
80	169	0	81
80	181	0	81
80	334	0	92
80	336	0	92
80	469	0	111
80	522	0	111
80	566	0	115
80	661	0	120
80	672	0	120
80	1006	0	123
80	1022	0	123
80	1026	0	123
80	1032	0	123
80	2864	0	125
80	3076	0	130
80	8280	0	139
80	8776	0	140
80	8792	0	140
80	12840	0	141
80	15192	0	142
80	17240	0	142
80	18616	0	142
81	183	0	82
81	188	0	83
81	324	0	91
81	338	0	92
81	406	0	94
81	408	0	94
81	712	0	120
81	1098	0	123
81	1234	0	123
81	1890	0	124
81	2032	0	124
81	2734	0	125
81	3240	0	130
81	3656	0	132
81	5316	0	134
81	5672	0	134
81	5736	0	134
81	7152	0	137
81	7448	0	137
81	10960	0	141
81	12048	0	141
81	12128	0	141
81	17192	0	142
81	17832	0	142
81	19544	0	142
82	184	0	83
82	187	0	83
82	715	0	122
82	2450	0	124
82	3684	0	132
82	3700	0	132
82	5596	0	134
82	5628	0	134
82	5844	0	134
82	10832	0	140
82	11184	0	141
82	11264	0	141
82	19688	0	142
83	198	0	84
83	327	0	91
83	331	0	91
83	544	0	111
83	677	0	120
83	1000	0	123
83	1018	0	123
83	1220	0	123
83	1724	0	124
83	1740	0	124
83	2028	0	124
83	2764	0	125
83	2882	0	126
83	3060	0	128
83	3404	0	130
83	4032	0	134
83	4044	0	134
83	4748	0	134
83	5308	0	134
83	5856	0	134
83	7168	0	137
83	8264	0	139
83	9408	0	140
83	9632	0	140
83	9784	0	140
83	10704	0	140
83	11768	0	141
83	12808	0	141
83	14032	0	141
83	18632	0	142
83	19464	0	142
84	201	0	85
84	222	0	86
84	353	0	92
84	384	0	93
84	395	0	93
84	405	0	94
84	466	0	111
84	914	0	122
84	932	0	122
84	1262	0	123
84	2284	0	124
84	2322	0	124
84	2352	0	124
84	2626	0	125
84	2676	0	125
84	2736	0	125
84	2866	0	125
84	2936	0	126
84	3244	0	130
84	3868	0	134
84	4532	0	134
84	4744	0	134
84	5748	0	134
84	6220	0	137
84	6232	0	137
84	7376	0	137
84	7696	0	139
84	8136	0	139
84	8168	0	139
84	12976	0	141
84	15176	0	142
84	17528	0	142
84	18344	0	142
84	18584	0	142
85	208	0	86
85	293	0	90
85	839	0	122
85	938	0	122
85	1278	0	123
85	1334	0	124
85	1338	0	124
85	1370	0	124
85	1676	0	124
85	1758	0	124
85	1766	0	124
85	1846	0	124
85	1896	0	124
85	2130	0	124
85	2314	0	124
85	2334	0	124
85	2420	0	124
85	2446	0	124
85	2922	0	126
85	3160	0	130
85	3828	0	132
85	4308	0	134
85	4656	0	134
85	4664	0	134
85	5340	0	134
85	5808	0	134
85	5816	0	134
85	6020	0	134
85	6032	0	134
85	6392	0	137
85	6580	0	137
85	6596	0	137
85	7664	0	139
85	7952	0	139
85	8864	0	140
85	8944	0	140
85	11864	0	141
85	13200	0	141
85	14408	0	141
85	17672	0	142
85	17928	0	142
86	227	0	87
86	400	0	93
86	403	0	94
86	430	0	95
86	461	0	111
86	484	0	111
86	496	0	111
86	515	0	111
86	740	0	122
86	782	0	122
86	923	0	122
86	930	0	122
86	1012	0	123
86	1184	0	123
86	1188	0	123
86	1452	0	124
86	1570	0	124
86	2242	0	124
86	2252	0	124
86	2400	0	124
86	2518	0	125
86	2646	0	125
86	2674	0	125
86	2714	0	125
86	2762	0	125
86	2844	0	125
86	2998	0	126
86	3028	0	126
86	3528	0	132
86	4584	0	134
86	4644	0	134
86	4724	0	134
86	5152	0	134
86	5188	0	134
86	5876	0	134
86	5944	0	134
86	6088	0	136
86	6832	0	137
86	7536	0	139
86	7568	0	139
86	7624	0	139
86	7784	0	139
86	8016	0	139
86	8240	0	139
86	8840	0	140
86	9656	0	140
86	9768	0	140
86	10488	0	140
86	10656	0	140
86	11600	0	141
86	13696	0	141
86	13856	0	141
86	14192	0	141
86	14784	0	142
86	15528	0	142
86	16632	0	142
86	16760	0	142
86	17096	0	142
86	17416	0	142
86	18536	0	142
86	19976	0	142
87	254	0	88
87	328	0	91
87	392	0	93
87	486	0	111
87	499	0	111
87	695	0	120
87	705	0	120
87	766	0	122
87	960	0	122
87	1200	0	123
87	1394	0	124
87	1442	0	124
87	1496	0	124
87	1810	0	124
87	1828	0	124
87	2056	0	124
87	2158	0	124
87	2298	0	124
87	2392	0	124
87	2566	0	125
87	2820	0	125
87	2884	0	126
87	2888	0	126
87	3440	0	131
87	3508	0	131
87	3888	0	134
87	3936	0	134
87	4952	0	134
87	5040	0	134
87	5192	0	134
87	5580	0	134
87	5704	0	134
87	6520	0	137
87	6688	0	137
87	7280	0	137
87	8024	0	139
87	8256	0	139
87	9792	0	140
87	10552	0	140
87	13968	0	141
87	14016	0	141
87	16824	0	142
87	18552	0	142
87	20120	0	142
88	267	0	89
88	283	0	89
88	309	0	91
88	508	0	111
88	654	0	120
88	666	0	120
88	769	0	122
88	790	0	122
88	936	0	122
88	1036	0	123
88	1288	0	123
88	1826	0	124
88	2010	0	124
88	2088	0	124
88	2144	0	124
88	2280	0	124
88	2440	0	124
88	2838	0	125
88	3012	0	126
88	3020	0	126
88	3224	0	130
88	3312	0	130
88	3336	0	130
88	3760	0	132
88	3956	0	134
88	4100	0	134
88	4384	0	134
88	4880	0	134
88	5284	0	134
88	5324	0	134
88	6144	0	137
88	6296	0	137
88	7360	0	137
88	8312	0	140
88	9032	0	140
88	9360	0	140
88	10760	0	140
88	11008	0	141
88	11808	0	141
88	12560	0	141
88	12760	0	141
88	12784	0	141
88	13624	0	141
88	13640	0	141
88	13888	0	141
88	16792	0	142
88	17112	0	142
88	17576	0	142
88	18056	0	142
88	18168	0	142
88	18232	0	142
88	18504	0	142
88	18952	0	142
89	285	0	90
89	1144	0	123
89	1536	0	124
89	1560	0	124
89	1798	0	124
89	1958	0	124
89	2770	0	125
89	4280	0	134
89	5564	0	134
89	6260	0	137
89	12632	0	141
89	13424	0	141
89	13440	0	141
89	14352	0	141
89	14456	0	141
89	16360	0	142
89	16488	0	142
89	20152	0	142
89	20216	0	142
89	20248	0	142
90	294	0	91
90	299	0	91
90	723	0	122
90	948	0	122
90	951	0	122
90	1368	0	124
90	1850	0	124
90	1926	0	124
90	2052	0	124
90	2132	0	124
90	3808	0	132
90	3816	0	132
90	4152	0	134
90	4408	0	134
90	5776	0	134
90	5824	0	134
90	6192	0	137
90	6736	0	137
90	6780	0	137
90	7504	0	137
90	8432	0	140
90	9544	0	140
90	9568	0	140
90	13184	0	141
90	17768	0	142
90	18264	0	142
91	332	0	92
91	470	0	111
91	675	0	120
91	1004	0	123
91	1010	0	123
91	1738	0	124
91	2846	0	125
91	2860	0	125
91	2932	0	126
91	4852	0	134
91	7560	0	139
91	8272	0	139
91	10680	0	140
91	10696	0	140
91	10720	0	140
91	13864	0	141
91	13984	0	141
91	16616	0	142
91	18808	0	142
92	362	0	93
92	1308	0	124
92	1666	0	124
92	1670	0	124
92	2424	0	124
92	3628	0	132
92	4300	0	134
92	5800	0	134
92	5832	0	134
92	9280	0	140
93	401	0	94
93	446	0	103
93	457	0	109
93	582	0	117
93	600	0	120
93	647	0	120
93	686	0	120
93	908	0	122
93	926	0	122
93	1716	0	124
93	1962	0	124
93	1976	0	124
93	2648	0	125
93	3908	0	134
93	4580	0	134
93	4788	0	134
93	5464	0	134
93	5880	0	134
93	9912	0	140
93	14304	0	141
93	15704	0	142
93	15816	0	142
94	415	0	95
94	721	0	122
94	746	0	122
94	1312	0	124
94	1382	0	124
94	2176	0	124
94	2578	0	125
94	3348	0	130
94	3620	0	132
94	3648	0	132
94	4932	0	134
94	5024	0	134
94	5592	0	134
94	5716	0	134
94	5764	0	134
94	5840	0	134
94	6576	0	137
94	6584	0	137
94	8408	0	140
94	9504	0	140
94	9840	0	140
94	10824	0	140
94	11176	0	141
94	17912	0	142
95	433	0	96
95	587	0	117
95	620	0	120
95	626	0	120
95	982	0	123
95	1178	0	123
95	1408	0	124
95	1510	0	124
95	1532	0	124
95	2488	0	125
95	4816	0	134
95	5220	0	134
95	5444	0	134
95	13376	0	141
95	13456	0	141
95	13824	0	141
95	14296	0	141
95	16104	0	142
95	16280	0	142
95	16312	0	142
96	434	0	97
96	596	0	119
96	625	0	120
96	1152	0	123
96	1428	0	124
96	2486	0	125
96	2492	0	125
96	2496	0	125
96	2500	0	125
96	5536	0	134
96	5560	0	134
96	7600	0	139
96	9992	0	140
96	15912	0	142
96	16344	0	142
96	20168	0	142
97	435	0	98
97	454	0	108
97	558	0	114
97	644	0	120
97	967	0	122
97	1154	0	123
97	1518	0	124
97	1562	0	124
97	4760	0	134
97	13432	0	141
97	13496	0	141
97	13528	0	141
97	15944	0	142
97	16376	0	142
98	439	0	99
98	548	0	111
98	550	0	111
98	621	0	120
98	635	0	120
98	680	0	120
98	887	0	122
98	889	0	122
98	895	0	122
98	975	0	123
98	983	0	123
98	1954	0	124
98	6540	0	137
98	13720	0	141
98	14200	0	141
98	14240	0	141
98	14752	0	141
98	15752	0	142
99	440	0	100
99	547	0	111
99	608	0	120
99	683	0	120
99	1714	0	124
99	1942	0	124
99	1964	0	124
99	2000	0	124
99	2248	0	124
99	2716	0	125
99	2720	0	125
99	2850	0	125
99	2854	0	125
99	3084	0	130
99	4564	0	134
99	8992	0	140
99	14232	0	141
100	442	0	101
100	560	0	115
100	571	0	115
100	614	0	120
100	638	0	120
100	877	0	122
100	984	0	123
100	1422	0	124
100	1508	0	124
100	1542	0	124
100	1940	0	124
100	1948	0	124
100	1992	0	124
100	2466	0	124
100	2718	0	125
100	4624	0	134
100	4784	0	134
100	5140	0	134
100	5436	0	134
100	6076	0	134
100	13712	0	141
100	14288	0	141
100	16152	0	142
100	16424	0	142
101	444	0	102
101	460	0	111
101	572	0	115
101	610	0	120
101	619	0	120
101	891	0	122
101	897	0	122
101	924	0	122
101	1556	0	124
101	1982	0	124
101	2250	0	124
101	2516	0	125
101	4796	0	134
101	5200	0	134
101	5248	0	134
101	5868	0	134
101	6064	0	134
101	7616	0	139
101	9904	0	140
101	13344	0	141
101	13744	0	141
101	14312	0	141
101	16568	0	142
102	445	0	103
102	583	0	117
102	603	0	120
102	609	0	120
102	616	0	120
102	622	0	120
102	890	0	122
102	909	0	122
102	1514	0	124
102	1566	0	124
102	2460	0	124
102	2504	0	125
102	4772	0	134
102	5148	0	134
102	5472	0	134
102	10024	0	140
102	13728	0	141
102	13808	0	141
102	14744	0	141
102	16472	0	142
103	447	0	104
103	453	0	108
103	615	0	120
103	894	0	122
103	976	0	123
103	980	0	123
103	1538	0	124
103	1984	0	124
103	2468	0	124
103	4776	0	134
103	4824	0	134
103	5540	0	134
103	13448	0	141
103	13816	0	141
103	13840	0	141
103	14328	0	141
103	20200	0	142
104	448	0	105
104	455	0	108
104	584	0	117
104	602	0	120
104	606	0	120
104	613	0	120
104	623	0	120
104	685	0	120
104	892	0	122
104	901	0	122
104	910	0	122
104	970	0	122
104	987	0	123
104	1524	0	124
104	1974	0	124
104	2464	0	124
104	4804	0	134
104	4812	0	134
104	5208	0	134
104	5228	0	134
104	5480	0	134
104	13352	0	141
104	13520	0	141
104	13760	0	141
104	13776	0	141
104	14272	0	141
104	16520	0	142
104	16552	0	142
105	449	0	106
105	451	0	107
105	579	0	117
105	594	0	119
105	5224	0	134
105	5500	0	134
105	5516	0	134
105	9936	0	140
105	13360	0	141
105	13480	0	141
105	14336	0	141
105	15992	0	142
105	16088	0	142
105	16216	0	142
106	450	0	107
106	551	0	111
106	576	0	116
106	627	0	120
106	643	0	120
106	646	0	120
106	684	0	120
106	885	0	122
106	893	0	122
106	927	0	122
106	1146	0	123
106	1424	0	124
106	1526	0	124
106	1552	0	124
106	1978	0	124
106	1986	0	124
106	2512	0	125
106	2768	0	125
106	4764	0	134
106	4828	0	134
106	5532	0	134
106	6068	0	134
106	9984	0	140
106	13368	0	141
106	13384	0	141
106	13408	0	141
106	14264	0	141
106	14344	0	141
106	16136	0	142
106	16440	0	142
107	452	0	108
107	580	0	117
107	590	0	119
107	903	0	122
107	2470	0	124
107	5484	0	134
107	9960	0	140
107	16056	0	142
107	16536	0	142
108	456	0	109
108	552	0	111
108	598	0	119
108	611	0	120
108	682	0	120
108	911	0	122
108	972	0	122
108	988	0	123
108	1544	0	124
108	1944	0	124
108	2650	0	125
108	4800	0	134
108	5232	0	134
108	5440	0	134
108	5508	0	134
108	5548	0	134
108	6084	0	135
108	6544	0	137
108	13400	0	141
108	13512	0	141
108	13848	0	141
109	458	0	110
109	553	0	111
109	604	0	120
109	618	0	120
109	878	0	122
109	884	0	122
109	906	0	122
109	1180	0	123
109	1540	0	124
109	1998	0	124
109	2474	0	124
109	4780	0	134
109	4820	0	134
109	5204	0	134
109	5240	0	134
109	5524	0	134
109	9976	0	140
109	10008	0	140
109	14224	0	141
109	15768	0	142
109	15848	0	142
109	15880	0	142
110	459	0	111
110	585	0	117
110	883	0	122
110	1420	0	124
110	1968	0	124
110	1980	0	124
110	1990	0	124
110	5216	0	134
110	5448	0	134
110	5496	0	134
110	5504	0	134
110	6072	0	134
110	9920	0	140
110	13488	0	141
110	13784	0	141
110	13800	0	141
110	14216	0	141
110	14280	0	141
110	14320	0	141
110	15800	0	142
110	15928	0	142
110	16040	0	142
110	16248	0	142
110	16456	0	142
111	554	0	112
111	575	0	116
111	899	0	122
111	977	0	123
111	979	0	123
111	981	0	123
111	1150	0	123
111	1414	0	124
111	1418	0	124
111	1426	0	124
111	1996	0	124
111	2490	0	125
111	2494	0	125
111	5520	0	134
111	9952	0	140
111	15784	0	142
111	15896	0	142
111	20184	0	142
112	555	0	113
112	881	0	122
112	900	0	122
112	1970	0	124
112	2480	0	125
112	16008	0	142
112	16072	0	142
113	556	0	114
113	593	0	119
113	595	0	119
113	2498	0	125
113	4808	0	134
113	5212	0	134
113	5456	0	134
113	5488	0	134
113	9968	0	140
113	10000	0	140
113	13472	0	141
113	13768	0	141
113	16024	0	142
113	16232	0	142
114	559	0	115
114	573	0	115
114	577	0	116
114	639	0	120
114	642	0	120
114	880	0	122
114	971	0	122
114	1416	0	124
114	1520	0	124
114	1550	0	124
114	5236	0	134
114	5492	0	134
114	5512	0	134
114	13392	0	141
114	13752	0	141
114	15720	0	142
114	16120	0	142
114	16184	0	142
115	574	0	116
115	592	0	119
115	640	0	120
115	882	0	122
115	902	0	122
115	986	0	123
115	1148	0	123
115	2462	0	124
115	2482	0	125
115	2502	0	125
115	4768	0	134
115	7584	0	139
115	9944	0	140
115	10016	0	140
115	13792	0	141
115	13832	0	141
115	15976	0	142
116	578	0	117
116	624	0	120
116	641	0	120
116	978	0	123
116	1972	0	124
116	7592	0	139
116	9928	0	140
116	16200	0	142
117	588	0	118
117	905	0	122
117	2476	0	124
117	4572	0	134
117	15864	0	142
118	589	0	119
118	904	0	122
118	973	0	122
118	1512	0	124
118	4576	0	134
118	4792	0	134
118	4836	0	134
118	5468	0	134
119	599	0	120
119	628	0	120
119	681	0	120
119	898	0	122
119	969	0	122
119	1406	0	124
119	1410	0	124
119	1950	0	124
119	1966	0	124
119	1988	0	124
119	2472	0	124
119	2510	0	125
119	2514	0	125
119	2760	0	125
119	5424	0	134
119	5460	0	134
119	5872	0	134
119	7608	0	139
119	14208	0	141
119	16264	0	142
120	713	0	121
120	3660	0	132
120	3668	0	132
120	3688	0	132
120	5612	0	134
120	5624	0	134
120	5664	0	134
120	10840	0	140
120	10880	0	141
120	10936	0	141
120	10952	0	141
120	11208	0	141
120	11256	0	141
120	11288	0	141
120	12096	0	141
120	19560	0	142
121	714	0	122
121	3720	0	132
121	5604	0	134
121	5632	0	134
121	5648	0	134
121	10864	0	141
121	10896	0	141
121	11200	0	141
121	11280	0	141
121	19624	0	142
121	19720	0	142
122	974	0	123
122	4568	0	134
122	4840	0	134
122	5884	0	134
123	1384	0	124
123	1584	0	124
123	2048	0	124
123	2168	0	124
123	2232	0	124
123	2902	0	126
123	2906	0	126
123	2926	0	126
123	3820	0	132
123	6324	0	137
123	7496	0	137
123	7752	0	139
123	10168	0	140
123	11040	0	141
123	12704	0	141
124	2478	0	125
125	3672	0	132
125	5608	0	134
125	5620	0	134
125	5640	0	134
125	5656	0	134
125	10904	0	141
125	11272	0	141
125	19608	0	142
126	3676	0	132
126	3708	0	132
126	3716	0	132
126	5652	0	134
126	10872	0	141
126	10920	0	141
126	11224	0	141
126	11240	0	141
126	12080	0	141
126	12104	0	141
127	3680	0	132
127	3692	0	132
127	5616	0	134
127	10848	0	140
127	10912	0	141
127	11192	0	141
127	12064	0	141
127	12088	0	141
128	3696	0	132
128	3712	0	132
128	5660	0	134
128	10928	0	141
128	11232	0	141
128	12072	0	141
128	12112	0	141
128	19576	0	142
128	19704	0	142
128	19752	0	142
129	3704	0	132
129	3724	0	132
129	5600	0	134
129	5644	0	134
129	5668	0	134
129	10856	0	141
129	10888	0	141
129	11216	0	141
129	11248	0	141
129	12056	0	141
129	19640	0	142
129	19736	0	142
129	19768	0	142
130	5636	0	134
130	10944	0	141
130	12120	0	141
130	19592	0	142
130	19672	0	142

