version 3
run General-353-20250904-14:13:22-15789
attr configname General
attr datetime 20250904-14:13:22
attr datetimef 20250904-141322
attr experiment General
attr inifile omnetpp.ini
attr iterationvars ""
attr iterationvarsd ""
attr iterationvarsf ""
attr measurement ""
attr network TaxiNetwork
attr processid 15789
attr repetition 353
attr replication #353
attr resultdir results
attr runnumber 353
attr seedset 353
config network TaxiNetwork
config seed-set 353
config num-rngs 1
config sim-time-limit 10s
config repeat 500
config *.numWalkers 1
config *.enableDuplication true
config *.rc 700
config **.node[0].xCor 2933
config **.node[0].yCor 2747
config **.node[1].xCor 2919
config **.node[1].yCor 2817
config **.node[2].xCor 2910
config **.node[2].yCor 2861
config **.node[3].xCor 2429
config **.node[3].yCor 2851
config **.node[4].xCor 2908
config **.node[4].yCor 2714
config **.node[5].xCor 2606
config **.node[5].yCor 2722
config **.node[6].xCor 2575
config **.node[6].yCor 2753
config **.node[7].xCor 2654
config **.node[7].yCor 2513
config **.node[8].xCor 2773
config **.node[8].yCor 2580
config **.node[9].xCor 3043
config **.node[9].yCor 2780
config **.node[10].xCor 3020
config **.node[10].yCor 2813
config **.node[11].xCor 2599
config **.node[11].yCor 2300
config **.node[12].xCor 2917
config **.node[12].yCor 2698
config **.node[13].xCor 2625
config **.node[13].yCor 2641
config **.node[14].xCor 2604
config **.node[14].yCor 2790
config **.node[15].xCor 2786
config **.node[15].yCor 3082
config **.node[16].xCor 2603
config **.node[16].yCor 2802
config **.node[17].xCor 2637
config **.node[17].yCor 2869
config **.node[18].xCor 2675
config **.node[18].yCor 2955
config **.node[19].xCor 2845
config **.node[19].yCor 2937
config **.node[20].xCor 2860
config **.node[20].yCor 2888
config **.node[21].xCor 2843
config **.node[21].yCor 4158
config **.node[22].xCor 2852
config **.node[22].yCor 4017
config **.node[23].xCor 2892
config **.node[23].yCor 4961
config **.node[24].xCor 2313
config **.node[24].yCor 3993
config **.node[25].xCor 2891
config **.node[25].yCor 4959
config **.node[26].xCor 2370
config **.node[26].yCor 4050
config **.node[27].xCor 2788
config **.node[27].yCor 3958
config **.node[28].xCor 2819
config **.node[28].yCor 4428
config **.node[29].xCor 2790
config **.node[29].yCor 3761
config **.node[30].xCor 2809
config **.node[30].yCor 2908
config **.node[31].xCor 2919
config **.node[31].yCor 3575
config **.node[32].xCor 2946
config **.node[32].yCor 3466
config **.node[33].xCor 2911
config **.node[33].yCor 3453
config **.node[34].xCor 2370
config **.node[34].yCor 3656
config **.node[35].xCor 2438
config **.node[35].yCor 3738
config **.node[36].xCor 2737
config **.node[36].yCor 3570
config **.node[37].xCor 2921
config **.node[37].yCor 3698
config **.node[38].xCor 2907
config **.node[38].yCor 5197
config **.node[39].xCor 2860
config **.node[39].yCor 3852
config **.node[40].xCor 2927
config **.node[40].yCor 3684
config **.node[41].xCor 3023
config **.node[41].yCor 5313
config **.node[42].xCor 3220
config **.node[42].yCor 5811
config **.node[43].xCor 3432
config **.node[43].yCor 5715
config **.node[44].xCor 2754
config **.node[44].yCor 2463
config **.node[45].xCor 2646
config **.node[45].yCor 2673
config **.node[46].xCor 3051
config **.node[46].yCor 2792
config **.node[47].xCor 1666
config **.node[47].yCor 3697
config **.node[48].xCor 1662
config **.node[48].yCor 3694
config **.node[49].xCor 1664
config **.node[49].yCor 3667
config **.node[50].xCor 1660
config **.node[50].yCor 3664
config **.node[51].xCor 1710
config **.node[51].yCor 3573
config **.node[52].xCor 2082
config **.node[52].yCor 2650
config **.node[53].xCor 2086
config **.node[53].yCor 2657
config **.node[54].xCor 2257
config **.node[54].yCor 3232
config **.node[55].xCor 2258
config **.node[55].yCor 3225
config **.node[56].xCor 1926
config **.node[56].yCor 2570
config **.node[57].xCor 1926
config **.node[57].yCor 2576
config **.node[58].xCor 2104
config **.node[58].yCor 1758
config **.node[59].xCor 1957
config **.node[59].yCor 1826
config **.node[60].xCor 3473
config **.node[60].yCor 1523
config **.node[61].xCor 3335
config **.node[61].yCor 1726
config **.node[62].xCor 3478
config **.node[62].yCor 1517
config **.node[63].xCor 3386
config **.node[63].yCor 2119
config **.node[64].xCor 3474
config **.node[64].yCor 1762
config **.node[65].xCor 3797
config **.node[65].yCor 2099
config **.node[66].xCor 3642
config **.node[66].yCor 2136
config **.node[67].xCor 3481
config **.node[67].yCor 2334
config **.node[68].xCor 3088
config **.node[68].yCor 1505
config **.node[69].xCor 3037
config **.node[69].yCor 1693
config **.node[70].xCor 3026
config **.node[70].yCor 1700
config **.node[71].xCor 3019
config **.node[71].yCor 669
config **.node[72].xCor 3513
config **.node[72].yCor 1358
config **.node[73].xCor 3545
config **.node[73].yCor 1230
config **.node[74].xCor 4228
config **.node[74].yCor 4220
config **.node[75].xCor 3379
config **.node[75].yCor 1207
config **.node[76].xCor 3596
config **.node[76].yCor 963
config **.node[77].xCor 3637
config **.node[77].yCor 1188
config **.node[78].xCor 3759
config **.node[78].yCor 1030
config **.node[79].xCor 2918
config **.node[79].yCor 1455
config **.node[80].xCor 2711
config **.node[80].yCor 1297
config **.node[81].xCor 439
config **.node[81].yCor 1623
config **.node[82].xCor 2857
config **.node[82].yCor 3581
config **.node[83].xCor 2858
config **.node[83].yCor 3584
config **.node[84].xCor 2999
config **.node[84].yCor 2636
config **.node[85].xCor 2905
config **.node[85].yCor 2778
config **.node[86].xCor 2653
config **.node[86].yCor 2845
config **.node[87].xCor 2864
config **.node[87].yCor 2836
config **.node[88].xCor 2426
config **.node[88].yCor 2892
config **.node[89].xCor 2964
config **.node[89].yCor 2804
config **.node[90].xCor 2586
config **.node[90].yCor 3135
config **.node[91].xCor 2864
config **.node[91].yCor 2980
config **.node[92].xCor 2527
config **.node[92].yCor 3219
config **.node[93].xCor 2863
config **.node[93].yCor 3142
config **.node[94].xCor 2485
config **.node[94].yCor 3269
config **.node[95].xCor 2653
config **.node[95].yCor 1065
config **.node[96].xCor 4062
config **.node[96].yCor 400
config **.node[97].xCor 5762
config **.node[97].yCor 3023
config **.node[98].xCor 1414
config **.node[98].yCor 3461
config **.node[99].xCor 2911
config **.node[99].yCor 1737
config **.node[100].xCor 2595
config **.node[100].yCor 2299
config **.node[101].xCor 2702
config **.node[101].yCor 3419
config **.node[102].xCor 2813
config **.node[102].yCor 3307
config **.node[103].xCor 2638
config **.node[103].yCor 2258
config **.node[104].xCor 2590
config **.node[104].yCor 3125
config **.node[105].xCor 1856
config **.node[105].yCor 2990
config **.node[106].xCor 1894
config **.node[106].yCor 2239
config **.node[107].xCor 383
config **.node[107].yCor 1251
config **.node[108].xCor 3447
config **.node[108].yCor 5489
config **.node[109].xCor 3450
config **.node[109].yCor 5697
config **.node[110].xCor 2719
config **.node[110].yCor 1920
config **.node[111].xCor 2085
config **.node[111].yCor 2389
config **.node[112].xCor 1910
config **.node[112].yCor 2548
config **.node[113].xCor 2069
config **.node[113].yCor 2050
config **.node[114].xCor 2184
config **.node[114].yCor 2209
config **.node[115].xCor 2278
config **.node[115].yCor 2390
config **.node[116].xCor 2249
config **.node[116].yCor 2299
config **.node[117].xCor 2356
config **.node[117].yCor 2303
config **.node[118].xCor 2192
config **.node[118].yCor 2475
config **.node[119].xCor 1720
config **.node[119].yCor 2911
config **.node[120].xCor 2400
config **.node[120].yCor 2887
config **.node[121].xCor 3344
config **.node[121].yCor 1890
config **.node[122].xCor 3136
config **.node[122].yCor 2418
config **.node[123].xCor 3243
config **.node[123].yCor 2525
config **.node[124].xCor 2396
config **.node[124].yCor 1267
config **.node[125].xCor 467
config **.node[125].yCor 1875
config **.node[126].xCor 3506
config **.node[126].yCor 1221
config **.node[127].xCor 1034
config **.node[127].yCor 1474
config **.node[128].xCor 2908
config **.node[128].yCor 1784
config **.node[129].xCor 2876
config **.node[129].yCor 1761
config **.node[130].xCor 2849
config **.node[130].yCor 1795
config **.node[131].xCor 3029
config **.node[131].yCor 1859
config **.node[132].xCor 2924
config **.node[132].yCor 1848
config **.node[133].xCor 3493
config **.node[133].yCor 1559
config **.node[134].xCor 2760
config **.node[134].yCor 1761
config **.node[135].xCor 1644
config **.node[135].yCor 3755
config **.node[136].xCor 1463
config **.node[136].yCor 3432
config **.node[137].xCor 2595
config **.node[137].yCor 2849
config **.node[138].xCor 2581
config **.node[138].yCor 2867
config **.node[139].xCor 2524
config **.node[139].yCor 2911
config **.node[140].xCor 2570
config **.node[140].yCor 2924
config **.node[141].xCor 2676
config **.node[141].yCor 2890
config **.node[142].xCor 2666
config **.node[142].yCor 2876
config **.node[143].xCor 3735
config **.node[143].yCor 1726
config **.node[144].xCor 1637
config **.node[144].yCor 3438

vector 0 TaxiNetwork.node[12] visitedPerTimestep ETV
vector 1 TaxiNetwork.node[3] visitedPerTimestep ETV
vector 2 TaxiNetwork.node[118] visitedPerTimestep ETV
vector 3 TaxiNetwork.node[59] visitedPerTimestep ETV
vector 4 TaxiNetwork.node[116] visitedPerTimestep ETV
vector 5 TaxiNetwork.node[115] visitedPerTimestep ETV
vector 6 TaxiNetwork.node[57] visitedPerTimestep ETV
vector 7 TaxiNetwork.node[111] visitedPerTimestep ETV
vector 8 TaxiNetwork.node[13] visitedPerTimestep ETV
vector 9 TaxiNetwork.node[54] visitedPerTimestep ETV
vector 10 TaxiNetwork.node[16] visitedPerTimestep ETV
vector 11 TaxiNetwork.node[94] visitedPerTimestep ETV
vector 12 TaxiNetwork.node[88] visitedPerTimestep ETV
vector 13 TaxiNetwork.node[138] visitedPerTimestep ETV
vector 14 TaxiNetwork.node[33] visitedPerTimestep ETV
vector 15 TaxiNetwork.node[87] visitedPerTimestep ETV
vector 16 TaxiNetwork.node[44] visitedPerTimestep ETV
vector 17 TaxiNetwork.node[131] visitedPerTimestep ETV
vector 18 TaxiNetwork.node[61] visitedPerTimestep ETV
vector 19 TaxiNetwork.node[99] visitedPerTimestep ETV
vector 20 TaxiNetwork.node[60] visitedPerTimestep ETV
vector 21 TaxiNetwork.node[121] visitedPerTimestep ETV
vector 22 TaxiNetwork.node[134] visitedPerTimestep ETV
vector 23 TaxiNetwork.node[128] visitedPerTimestep ETV
vector 24 TaxiNetwork.node[132] visitedPerTimestep ETV
vector 25 TaxiNetwork.node[100] visitedPerTimestep ETV
vector 26 TaxiNetwork.node[133] visitedPerTimestep ETV
vector 27 TaxiNetwork.node[129] visitedPerTimestep ETV
vector 28 TaxiNetwork.node[130] visitedPerTimestep ETV
vector 29 TaxiNetwork.node[11] visitedPerTimestep ETV
vector 30 TaxiNetwork.node[122] visitedPerTimestep ETV
vector 31 TaxiNetwork.node[19] visitedPerTimestep ETV
vector 32 TaxiNetwork.node[4] visitedPerTimestep ETV
vector 33 TaxiNetwork.node[85] visitedPerTimestep ETV
vector 34 TaxiNetwork.node[20] visitedPerTimestep ETV
vector 35 TaxiNetwork.node[83] visitedPerTimestep ETV
vector 36 TaxiNetwork.node[104] visitedPerTimestep ETV
vector 37 TaxiNetwork.node[15] visitedPerTimestep ETV
vector 38 TaxiNetwork.node[31] visitedPerTimestep ETV
vector 39 TaxiNetwork.node[39] visitedPerTimestep ETV
vector 40 TaxiNetwork.node[35] visitedPerTimestep ETV
vector 41 TaxiNetwork.node[37] visitedPerTimestep ETV
vector 42 TaxiNetwork.node[32] visitedPerTimestep ETV
vector 43 TaxiNetwork.node[22] visitedPerTimestep ETV
vector 44 TaxiNetwork.node[27] visitedPerTimestep ETV
vector 45 TaxiNetwork.node[103] visitedPerTimestep ETV
vector 46 TaxiNetwork.node[139] visitedPerTimestep ETV
vector 47 TaxiNetwork.node[117] visitedPerTimestep ETV
vector 48 TaxiNetwork.node[1] visitedPerTimestep ETV
vector 49 TaxiNetwork.node[91] visitedPerTimestep ETV
vector 50 TaxiNetwork.node[5] visitedPerTimestep ETV
vector 51 TaxiNetwork.node[10] visitedPerTimestep ETV
vector 52 TaxiNetwork.node[8] visitedPerTimestep ETV
vector 53 TaxiNetwork.node[2] visitedPerTimestep ETV
vector 54 TaxiNetwork.node[102] visitedPerTimestep ETV
vector 55 TaxiNetwork.node[45] visitedPerTimestep ETV
vector 56 TaxiNetwork.node[84] visitedPerTimestep ETV
vector 57 TaxiNetwork.node[142] visitedPerTimestep ETV
vector 58 TaxiNetwork.node[140] visitedPerTimestep ETV
vector 59 TaxiNetwork.node[6] visitedPerTimestep ETV
vector 60 TaxiNetwork.node[120] visitedPerTimestep ETV
vector 61 TaxiNetwork.node[86] visitedPerTimestep ETV
vector 62 TaxiNetwork.node[90] visitedPerTimestep ETV
vector 63 TaxiNetwork.node[46] visitedPerTimestep ETV
vector 64 TaxiNetwork.node[67] visitedPerTimestep ETV
vector 65 TaxiNetwork.node[66] visitedPerTimestep ETV
vector 66 TaxiNetwork.node[63] visitedPerTimestep ETV
vector 67 TaxiNetwork.node[79] visitedPerTimestep ETV
vector 68 TaxiNetwork.node[137] visitedPerTimestep ETV
vector 69 TaxiNetwork.node[17] visitedPerTimestep ETV
vector 70 TaxiNetwork.node[18] visitedPerTimestep ETV
vector 71 TaxiNetwork.node[30] visitedPerTimestep ETV
vector 72 TaxiNetwork.node[9] visitedPerTimestep ETV
vector 73 TaxiNetwork.node[110] visitedPerTimestep ETV
vector 74 TaxiNetwork.node[7] visitedPerTimestep ETV
vector 75 TaxiNetwork.node[14] visitedPerTimestep ETV
vector 76 TaxiNetwork.node[114] visitedPerTimestep ETV
vector 77 TaxiNetwork.node[0] visitedPerTimestep ETV
vector 78 TaxiNetwork.node[93] visitedPerTimestep ETV
vector 79 TaxiNetwork.node[36] visitedPerTimestep ETV
vector 80 TaxiNetwork.node[82] visitedPerTimestep ETV
vector 81 TaxiNetwork.node[24] visitedPerTimestep ETV
vector 82 TaxiNetwork.node[40] visitedPerTimestep ETV
vector 83 TaxiNetwork.node[26] visitedPerTimestep ETV
vector 84 TaxiNetwork.node[29] visitedPerTimestep ETV
vector 85 TaxiNetwork.node[28] visitedPerTimestep ETV
vector 86 TaxiNetwork.node[101] visitedPerTimestep ETV
vector 87 TaxiNetwork.node[52] visitedPerTimestep ETV
vector 88 TaxiNetwork.node[74] visitedPerTimestep ETV
vector 89 TaxiNetwork.node[92] visitedPerTimestep ETV
vector 90 TaxiNetwork.node[123] visitedPerTimestep ETV
vector 91 TaxiNetwork.node[141] visitedPerTimestep ETV
vector 92 TaxiNetwork.node[89] visitedPerTimestep ETV
vector 93 TaxiNetwork.node[105] visitedPerTimestep ETV
vector 94 TaxiNetwork.node[55] visitedPerTimestep ETV
vector 95 TaxiNetwork.node[113] visitedPerTimestep ETV
vector 96 TaxiNetwork.node[53] visitedPerTimestep ETV
vector 97 TaxiNetwork.node[34] visitedPerTimestep ETV
vector 98 TaxiNetwork.node[112] visitedPerTimestep ETV
vector 99 TaxiNetwork.node[56] visitedPerTimestep ETV
vector 100 TaxiNetwork.node[106] visitedPerTimestep ETV
vector 101 TaxiNetwork.node[21] visitedPerTimestep ETV
vector 102 TaxiNetwork.node[58] visitedPerTimestep ETV
vector 103 TaxiNetwork.node[65] visitedPerTimestep ETV
vector 104 TaxiNetwork.node[69] visitedPerTimestep ETV
vector 105 TaxiNetwork.node[64] visitedPerTimestep ETV
vector 106 TaxiNetwork.node[62] visitedPerTimestep ETV
vector 107 TaxiNetwork.node[126] visitedPerTimestep ETV
vector 108 TaxiNetwork.node[73] visitedPerTimestep ETV
vector 109 TaxiNetwork.node[119] visitedPerTimestep ETV
vector 110 TaxiNetwork.node[70] visitedPerTimestep ETV
vector 111 TaxiNetwork.node[72] visitedPerTimestep ETV
vector 112 TaxiNetwork.node[124] visitedPerTimestep ETV
vector 113 TaxiNetwork.node[95] visitedPerTimestep ETV
vector 114 TaxiNetwork.node[77] visitedPerTimestep ETV
vector 115 TaxiNetwork.node[76] visitedPerTimestep ETV
vector 116 TaxiNetwork.node[75] visitedPerTimestep ETV
vector 117 TaxiNetwork.node[68] visitedPerTimestep ETV
vector 118 TaxiNetwork.node[51] visitedPerTimestep ETV
vector 119 TaxiNetwork.node[136] visitedPerTimestep ETV
vector 120 TaxiNetwork.node[135] visitedPerTimestep ETV
vector 121 TaxiNetwork.node[50] visitedPerTimestep ETV
vector 122 TaxiNetwork.node[47] visitedPerTimestep ETV
vector 123 TaxiNetwork.node[97] visitedPerTimestep ETV
vector 124 TaxiNetwork.node[143] visitedPerTimestep ETV
vector 125 TaxiNetwork.node[98] visitedPerTimestep ETV
vector 126 TaxiNetwork.node[48] visitedPerTimestep ETV
vector 127 TaxiNetwork.node[49] visitedPerTimestep ETV
vector 128 TaxiNetwork.node[144] visitedPerTimestep ETV
vector 129 TaxiNetwork.node[78] visitedPerTimestep ETV
vector 130 TaxiNetwork.node[109] visitedPerTimestep ETV
vector 131 TaxiNetwork.node[42] visitedPerTimestep ETV
vector 132 TaxiNetwork.node[38] visitedPerTimestep ETV
vector 133 TaxiNetwork.node[41] visitedPerTimestep ETV
vector 134 TaxiNetwork.node[23] visitedPerTimestep ETV
vector 135 TaxiNetwork.node[25] visitedPerTimestep ETV
vector 136 TaxiNetwork.node[43] visitedPerTimestep ETV
vector 137 TaxiNetwork.node[127] visitedPerTimestep ETV
vector 138 TaxiNetwork.node[80] visitedPerTimestep ETV
vector 139 TaxiNetwork.node[96] visitedPerTimestep ETV
0	1	0	1
0	228	0	92
0	411	0	102
0	414	0	102
0	482	0	103
0	512	0	103
0	525	0	103
0	831	0	123
0	914	0	124
0	1316	0	130
0	1324	0	132
0	1386	0	136
0	1418	0	136
0	2042	0	138
0	2552	0	140
0	2594	0	141
0	2720	0	141
0	2800	0	141
0	3112	0	141
0	3900	0	141
0	3956	0	141
0	4784	0	142
1	2	0	2
1	44	0	37
1	59	0	45
1	121	0	70
1	126	0	71
1	146	0	75
1	198	0	88
1	244	0	93
1	251	0	93
1	278	0	94
1	345	0	98
1	353	0	101
1	513	0	103
1	519	0	103
1	615	0	110
1	705	0	115
1	716	0	115
1	998	0	125
1	1072	0	129
1	1470	0	137
1	1502	0	137
1	1688	0	137
1	1726	0	137
1	2982	0	141
1	3312	0	141
1	3776	0	141
1	4504	0	141
1	4520	0	141
1	4796	0	142
1	4804	0	142
1	4816	0	142
1	4900	0	142
2	3	0	3
2	152	0	76
2	361	0	101
2	618	0	110
2	772	0	115
2	862	0	123
2	1400	0	136
2	1454	0	137
2	1836	0	138
2	1878	0	138
2	2146	0	139
2	2152	0	139
2	2184	0	139
2	2702	0	141
2	3656	0	141
2	4204	0	141
2	4404	0	141
2	4620	0	141
2	4888	0	142
3	4	0	4
3	619	0	110
3	674	0	112
3	846	0	123
3	1516	0	137
3	2604	0	141
3	4864	0	142
3	4956	0	142
4	5	0	5
4	95	0	61
4	308	0	97
4	351	0	101
4	381	0	101
4	395	0	102
4	423	0	102
4	454	0	103
4	500	0	103
4	842	0	123
4	979	0	125
4	987	0	125
4	1784	0	137
4	2154	0	139
4	2692	0	141
4	3120	0	141
4	4516	0	141
4	4844	0	142
4	5064	0	142
5	6	0	6
5	71	0	51
5	266	0	94
5	268	0	94
5	427	0	102
5	429	0	102
5	442	0	103
5	614	0	110
5	620	0	110
5	634	0	110
5	717	0	115
5	731	0	115
5	776	0	115
5	811	0	123
5	1476	0	137
5	1562	0	137
5	1612	0	137
5	1674	0	137
5	1802	0	138
5	1834	0	138
5	2696	0	141
5	2742	0	141
5	2984	0	141
5	4408	0	141
5	4548	0	141
5	4596	0	141
5	4640	0	141
5	4648	0	141
5	4832	0	142
5	4860	0	142
5	4924	0	142
6	7	0	7
6	254	0	93
6	352	0	101
6	577	0	110
6	671	0	112
6	676	0	112
6	775	0	115
6	829	0	123
6	958	0	125
6	1512	0	137
6	2744	0	141
6	3784	0	141
7	8	0	8
7	253	0	93
7	303	0	95
7	309	0	97
7	380	0	101
7	501	0	103
7	503	0	103
7	528	0	103
7	670	0	112
7	672	0	112
7	1452	0	137
7	1566	0	137
7	1800	0	138
7	1882	0	138
7	2150	0	139
7	2220	0	139
7	4456	0	141
7	4624	0	141
7	4880	0	142
7	4948	0	142
8	9	0	9
8	75	0	52
8	94	0	61
8	274	0	94
8	377	0	101
8	440	0	103
8	471	0	103
8	496	0	103
8	650	0	112
8	733	0	115
8	993	0	125
8	1238	0	130
8	1348	0	135
8	1432	0	136
8	1488	0	137
8	1610	0	137
8	1628	0	137
8	1644	0	137
8	1696	0	137
8	2144	0	139
8	2888	0	141
8	2950	0	141
8	3048	0	141
8	3620	0	141
8	3716	0	141
8	4116	0	141
8	4260	0	141
8	4388	0	141
8	4464	0	141
8	5044	0	142
9	10	0	10
9	42	0	36
9	68	0	49
9	158	0	77
9	277	0	94
9	288	0	94
9	358	0	101
9	384	0	101
9	574	0	109
9	600	0	110
9	798	0	118
9	943	0	125
9	1592	0	137
9	2200	0	139
9	2380	0	140
9	2414	0	140
9	2582	0	141
9	2790	0	141
9	2906	0	141
9	2948	0	141
9	2968	0	141
9	3540	0	141
9	3884	0	141
9	4092	0	141
10	11	0	11
10	159	0	77
10	242	0	93
10	332	0	98
10	366	0	101
10	399	0	102
10	455	0	103
10	462	0	103
10	481	0	103
10	490	0	103
10	604	0	110
10	707	0	115
10	741	0	115
10	744	0	115
10	769	0	115
10	907	0	124
10	975	0	125
10	985	0	125
10	1168	0	130
10	1176	0	130
10	1522	0	137
10	1568	0	137
10	1602	0	137
10	1658	0	137
10	1892	0	138
10	2454	0	140
10	2698	0	141
10	2704	0	141
10	2734	0	141
10	2740	0	141
10	2916	0	141
10	2986	0	141
10	3136	0	141
10	3652	0	141
10	3700	0	141
10	4432	0	141
10	4476	0	141
11	12	0	12
11	14	0	13
11	93	0	61
11	123	0	70
11	162	0	77
11	172	0	78
11	417	0	102
11	474	0	103
11	480	0	103
11	626	0	110
11	630	0	110
11	708	0	115
11	762	0	115
11	884	0	123
11	886	0	123
11	901	0	124
11	963	0	125
11	982	0	125
11	1154	0	130
11	1424	0	136
11	1554	0	137
11	1698	0	137
11	1908	0	138
11	2112	0	139
11	2398	0	140
11	2588	0	141
11	2786	0	141
11	2930	0	141
11	3000	0	141
11	3016	0	141
11	3172	0	141
11	3556	0	141
11	3568	0	141
11	3676	0	141
11	4108	0	141
12	13	0	13
12	61	0	45
12	86	0	59
12	143	0	75
12	227	0	92
12	313	0	97
12	331	0	98
12	362	0	101
12	376	0	101
12	583	0	110
12	658	0	112
12	758	0	115
12	766	0	115
12	795	0	118
12	869	0	123
12	915	0	124
12	920	0	124
12	980	0	125
12	1004	0	125
12	1820	0	138
12	1896	0	138
12	2110	0	139
12	2218	0	139
12	2548	0	140
12	2746	0	141
12	3220	0	141
12	3940	0	141
12	4196	0	141
12	4496	0	141
12	4632	0	141
12	5020	0	142
12	5080	0	142
13	15	0	14
13	76	0	52
13	161	0	77
13	236	0	93
13	364	0	101
13	405	0	102
13	453	0	103
13	461	0	103
13	473	0	103
13	504	0	103
13	582	0	110
13	727	0	115
13	763	0	115
13	771	0	115
13	899	0	124
13	983	0	125
13	1420	0	136
13	1450	0	137
13	1622	0	137
13	1666	0	137
13	2126	0	139
13	2442	0	140
13	2728	0	141
13	3072	0	141
13	3284	0	141
13	3660	0	141
13	3712	0	141
13	3932	0	141
13	4200	0	141
13	4224	0	141
13	5024	0	142
14	16	0	15
14	56	0	45
14	92	0	61
14	130	0	72
14	231	0	93
14	297	0	95
14	317	0	98
14	340	0	98
14	418	0	102
14	507	0	103
14	602	0	110
14	711	0	115
14	903	0	124
14	941	0	125
14	1198	0	130
14	1700	0	137
14	1760	0	137
14	2162	0	139
14	2578	0	141
14	3056	0	141
14	4096	0	141
14	4580	0	141
15	17	0	16
15	148	0	76
15	234	0	93
15	292	0	95
15	301	0	95
15	343	0	98
15	409	0	102
15	458	0	103
15	567	0	109
15	706	0	115
15	719	0	115
15	740	0	115
15	900	0	124
15	960	0	125
15	962	0	125
15	1172	0	130
15	1204	0	130
15	1486	0	137
15	1632	0	137
15	1848	0	138
15	2048	0	138
15	2232	0	139
15	2360	0	140
15	2900	0	141
15	3080	0	141
15	3108	0	141
15	3208	0	141
15	3300	0	141
15	3340	0	141
15	3392	0	141
15	3816	0	141
15	3936	0	141
15	3964	0	141
15	4488	0	141
16	18	0	17
16	100	0	64
16	117	0	68
16	168	0	78
16	221	0	91
16	246	0	93
16	302	0	95
16	306	0	97
16	446	0	103
16	484	0	103
16	560	0	109
16	730	0	115
16	840	0	123
16	863	0	123
16	867	0	123
16	1138	0	130
16	1398	0	136
16	1600	0	137
16	1648	0	137
16	1652	0	137
16	1786	0	137
16	1832	0	138
16	1860	0	138
16	2028	0	138
16	2132	0	139
16	2238	0	139
16	2330	0	140
16	2424	0	140
16	2540	0	140
16	2596	0	141
16	2798	0	141
16	2802	0	141
16	2806	0	141
16	3228	0	141
16	3444	0	141
16	3456	0	141
16	3508	0	141
16	3604	0	141
16	3844	0	141
16	3868	0	141
16	4080	0	141
16	4556	0	141
16	4564	0	141
16	4644	0	141
17	19	0	18
17	110	0	67
17	112	0	68
17	549	0	107
17	929	0	124
17	1092	0	129
17	1396	0	136
17	2332	0	140
17	2462	0	140
17	2520	0	140
17	3476	0	141
17	3984	0	141
17	4180	0	141
17	4372	0	141
17	4684	0	141
18	20	0	19
18	557	0	109
18	646	0	112
18	686	0	114
18	688	0	114
18	780	0	115
18	1932	0	138
18	1946	0	138
18	2010	0	138
18	2464	0	140
18	2484	0	140
18	2672	0	141
18	2676	0	141
18	2864	0	141
18	3484	0	141
18	3492	0	141
18	4008	0	141
18	4068	0	141
18	4340	0	141
18	4680	0	141
18	4760	0	141
19	21	0	20
19	542	0	104
19	928	0	124
19	2272	0	140
19	2612	0	141
19	2644	0	141
19	2654	0	141
19	3980	0	141
20	22	0	21
20	540	0	104
20	555	0	109
20	693	0	114
20	781	0	115
20	1114	0	129
20	1938	0	138
20	1984	0	138
20	2000	0	138
20	2500	0	140
20	2616	0	141
20	3976	0	141
20	4020	0	141
20	4060	0	141
20	4072	0	141
20	4352	0	141
20	4728	0	141
21	23	0	22
21	108	0	67
21	643	0	111
21	1126	0	129
21	1952	0	138
21	1974	0	138
21	1990	0	138
21	2282	0	140
21	2286	0	140
21	2300	0	140
21	2470	0	140
21	2474	0	140
21	2514	0	140
21	2530	0	140
21	2632	0	141
21	2868	0	141
21	4040	0	141
21	4764	0	141
21	4776	0	142
22	24	0	23
22	543	0	104
22	691	0	114
22	844	0	123
22	850	0	123
22	926	0	124
22	2314	0	140
22	2326	0	140
22	2460	0	140
22	2678	0	141
22	2852	0	141
22	2876	0	141
23	25	0	24
23	27	0	25
23	31	0	27
23	551	0	107
23	690	0	114
23	697	0	115
23	778	0	115
23	1086	0	129
23	2316	0	140
23	2620	0	141
23	4292	0	141
23	4676	0	141
23	4752	0	141
24	26	0	25
24	29	0	26
24	116	0	68
24	559	0	109
24	637	0	110
24	642	0	111
24	685	0	114
24	701	0	115
24	703	0	115
24	1920	0	138
24	1942	0	138
24	1964	0	138
24	1968	0	138
24	2308	0	140
24	2646	0	141
24	3972	0	141
24	3988	0	141
24	4176	0	141
24	4560	0	141
25	28	0	26
25	82	0	56
25	87	0	59
25	279	0	94
25	283	0	94
25	329	0	98
25	426	0	102
25	435	0	103
25	633	0	110
25	636	0	110
25	654	0	112
25	657	0	112
25	665	0	112
25	667	0	112
25	881	0	123
25	922	0	124
25	989	0	125
25	1084	0	129
25	1190	0	130
25	1224	0	130
25	1442	0	136
25	1496	0	137
25	2108	0	139
25	2456	0	140
25	2538	0	140
25	2850	0	141
25	2854	0	141
25	2880	0	141
25	3116	0	141
25	3504	0	141
25	3512	0	141
25	3948	0	141
25	4468	0	141
25	4540	0	141
25	4652	0	141
25	4920	0	142
25	4972	0	142
26	30	0	27
26	106	0	66
26	114	0	68
26	545	0	105
26	639	0	111
26	684	0	114
26	698	0	115
26	786	0	118
26	1128	0	129
26	2288	0	140
26	2298	0	140
26	2476	0	140
26	2496	0	140
26	2510	0	140
26	2518	0	140
26	2524	0	140
26	2674	0	141
26	2872	0	141
26	3996	0	141
26	4672	0	141
26	4688	0	141
27	32	0	28
27	109	0	67
27	115	0	68
27	647	0	112
27	696	0	115
27	927	0	124
27	2320	0	140
27	2512	0	140
27	2618	0	141
27	2878	0	141
27	3500	0	141
27	4064	0	141
27	4744	0	141
27	4768	0	141
28	33	0	29
28	641	0	111
28	689	0	114
28	923	0	124
28	925	0	124
28	1088	0	129
28	2012	0	138
28	2312	0	140
28	2532	0	140
28	2614	0	141
28	2648	0	141
28	2652	0	141
28	2874	0	141
28	3156	0	141
28	3472	0	141
28	4076	0	141
28	4152	0	141
28	4184	0	141
28	4368	0	141
29	34	0	30
29	36	0	31
29	263	0	94
29	285	0	94
29	648	0	112
29	702	0	115
29	704	0	115
29	810	0	123
29	852	0	123
29	879	0	123
29	1052	0	129
29	1206	0	130
29	1394	0	136
29	1456	0	137
29	1526	0	137
29	1630	0	137
29	1752	0	137
29	1846	0	138
29	1856	0	138
29	1880	0	138
29	2334	0	140
29	2426	0	140
29	2600	0	141
29	3396	0	141
29	3616	0	141
29	3664	0	141
29	4208	0	141
29	4288	0	141
29	4568	0	141
30	35	0	31
30	78	0	53
30	135	0	73
30	229	0	92
30	241	0	93
30	436	0	103
30	743	0	115
30	755	0	115
30	991	0	125
30	1194	0	130
30	1490	0	137
30	1914	0	138
30	2528	0	140
30	2794	0	141
30	3104	0	141
30	3160	0	141
30	3204	0	141
30	4188	0	141
30	4528	0	141
31	37	0	32
31	60	0	45
31	201	0	88
31	216	0	90
31	245	0	93
31	261	0	94
31	322	0	98
31	328	0	98
31	344	0	98
31	826	0	123
31	967	0	125
31	999	0	125
31	1196	0	130
31	1336	0	134
31	1426	0	136
31	1430	0	136
31	1620	0	137
31	1624	0	137
31	1814	0	138
31	1898	0	138
31	2026	0	138
31	2158	0	139
31	2170	0	139
31	2216	0	139
31	2392	0	140
31	2896	0	141
31	2976	0	141
31	3052	0	141
31	3452	0	141
31	3576	0	141
31	3764	0	141
31	4228	0	141
31	4968	0	142
31	5000	0	142
32	38	0	33
32	65	0	48
32	101	0	64
32	103	0	64
32	138	0	74
32	330	0	98
32	401	0	102
32	403	0	102
32	460	0	103
32	463	0	103
32	467	0	103
32	561	0	109
32	833	0	123
32	878	0	123
32	956	0	125
32	992	0	125
32	1214	0	130
32	1222	0	130
32	1236	0	130
32	1364	0	136
32	1604	0	137
32	1866	0	138
32	2034	0	138
32	2052	0	138
32	2130	0	139
32	2384	0	140
32	2838	0	141
32	2894	0	141
32	2988	0	141
32	3144	0	141
32	3328	0	141
32	3624	0	141
32	3920	0	141
32	4232	0	141
32	4428	0	141
33	39	0	34
33	132	0	72
33	240	0	93
33	321	0	98
33	415	0	102
33	739	0	115
33	760	0	115
33	818	0	123
33	968	0	125
33	1226	0	130
33	1290	0	130
33	1626	0	137
33	1772	0	137
33	1806	0	138
33	1812	0	138
33	1824	0	138
33	1912	0	138
33	2044	0	138
33	2142	0	139
33	2178	0	139
33	2452	0	140
33	2754	0	141
33	2810	0	141
33	2818	0	141
33	3060	0	141
33	3148	0	141
33	3724	0	141
33	3856	0	141
33	3908	0	141
33	4104	0	141
33	4448	0	141
33	5008	0	142
34	40	0	35
34	46	0	38
34	52	0	42
34	58	0	45
34	67	0	49
34	141	0	75
34	164	0	78
34	276	0	94
34	452	0	103
34	472	0	103
34	523	0	103
34	562	0	109
34	715	0	115
34	746	0	115
34	918	0	124
34	1292	0	130
34	1532	0	137
34	1594	0	137
34	2046	0	138
34	2354	0	140
34	2394	0	140
34	2952	0	141
34	2956	0	141
34	3020	0	141
34	3028	0	141
34	3164	0	141
34	3380	0	141
34	3668	0	141
34	4392	0	141
34	4492	0	141
34	4912	0	142
34	4992	0	142
35	41	0	36
35	171	0	78
35	215	0	90
35	259	0	94
35	298	0	95
35	522	0	103
35	712	0	115
35	752	0	115
35	825	0	123
35	953	0	125
35	1330	0	134
35	1334	0	134
35	1354	0	136
35	1758	0	137
35	1762	0	137
35	2196	0	139
35	2782	0	141
35	2936	0	141
35	3176	0	141
35	3352	0	141
35	3580	0	141
35	3740	0	141
36	43	0	37
36	51	0	42
36	124	0	70
36	235	0	93
36	273	0	94
36	320	0	98
36	357	0	101
36	383	0	101
36	714	0	115
36	836	0	123
36	1362	0	136
36	1370	0	136
36	1374	0	136
36	1664	0	137
36	1710	0	137
36	1738	0	137
36	1886	0	138
36	2122	0	139
36	2140	0	139
36	2418	0	140
36	2736	0	141
36	2752	0	141
36	2760	0	141
36	2788	0	141
36	2816	0	141
36	2922	0	141
36	3040	0	141
36	3180	0	141
36	3196	0	141
36	3236	0	141
36	3332	0	141
36	4980	0	142
37	45	0	38
37	57	0	45
37	91	0	61
37	119	0	69
37	128	0	71
37	183	0	84
37	199	0	88
37	237	0	93
37	249	0	93
37	272	0	94
37	319	0	98
37	372	0	101
37	475	0	103
37	565	0	109
37	593	0	110
37	765	0	115
37	877	0	123
37	913	0	124
37	917	0	124
37	919	0	124
37	972	0	125
37	1006	0	125
37	1306	0	130
37	1462	0	137
37	1536	0	137
37	2246	0	139
37	2422	0	140
37	2580	0	141
37	2732	0	141
37	2908	0	141
37	3240	0	141
37	3720	0	141
37	3888	0	141
37	4608	0	141
38	47	0	39
38	207	0	89
38	336	0	98
38	373	0	101
38	387	0	101
38	563	0	109
38	912	0	124
38	948	0	125
38	1284	0	130
38	1702	0	137
38	1888	0	138
38	2120	0	139
38	2166	0	139
38	2762	0	141
38	2832	0	141
38	2912	0	141
38	3644	0	141
39	48	0	40
39	214	0	90
39	895	0	124
39	1262	0	130
39	1332	0	134
39	2926	0	141
39	2962	0	141
39	3588	0	141
40	49	0	41
40	189	0	86
40	316	0	98
40	325	0	98
40	937	0	125
40	950	0	125
40	1270	0	130
40	1298	0	130
40	1542	0	137
40	1550	0	137
40	2164	0	139
40	2758	0	141
40	2924	0	141
40	2970	0	141
41	50	0	42
41	338	0	98
41	389	0	102
41	710	0	115
41	952	0	125
41	1142	0	130
41	1280	0	130
41	1296	0	130
41	1368	0	136
41	1716	0	137
41	2574	0	141
41	3012	0	141
41	3368	0	141
42	53	0	43
42	209	0	89
42	260	0	94
42	323	0	98
42	326	0	98
42	568	0	109
42	585	0	110
42	624	0	110
42	724	0	115
42	936	0	125
42	1254	0	130
42	1538	0	137
42	1638	0	137
42	1764	0	137
42	2214	0	139
42	2244	0	139
42	2376	0	140
42	2826	0	141
42	2928	0	141
42	2964	0	141
42	2974	0	141
42	3836	0	141
43	54	0	44
43	190	0	86
43	203	0	88
43	386	0	101
43	822	0	123
43	857	0	123
43	949	0	125
43	1302	0	130
43	2402	0	140
43	2570	0	141
43	2972	0	141
43	4244	0	141
44	55	0	45
44	175	0	80
44	324	0	98
44	2566	0	141
45	62	0	46
45	102	0	64
45	133	0	72
45	275	0	94
45	432	0	103
45	663	0	112
45	834	0	123
45	1160	0	130
45	1646	0	137
45	1660	0	137
45	1682	0	137
45	1852	0	138
45	2014	0	138
45	2020	0	138
45	2222	0	139
45	2268	0	140
45	2348	0	140
45	2536	0	140
45	2598	0	141
45	3076	0	141
45	3152	0	141
45	3608	0	141
45	3708	0	141
45	3804	0	141
45	3960	0	141
45	3968	0	141
45	4452	0	141
45	4552	0	141
45	4628	0	141
45	4872	0	142
45	4932	0	142
45	4988	0	142
46	63	0	47
46	131	0	72
46	232	0	93
46	265	0	94
46	296	0	95
46	310	0	97
46	327	0	98
46	382	0	101
46	404	0	102
46	433	0	103
46	447	0	103
46	508	0	103
46	586	0	110
46	617	0	110
46	764	0	115
46	853	0	123
46	876	0	123
46	916	0	124
46	921	0	124
46	1208	0	130
46	1326	0	133
46	1346	0	135
46	1446	0	136
46	1466	0	137
46	1528	0	137
46	1558	0	137
46	1572	0	137
46	1796	0	138
46	2240	0	139
46	2266	0	140
46	2370	0	140
46	2716	0	141
46	3828	0	141
46	4460	0	141
46	4536	0	141
46	4848	0	142
46	4876	0	142
47	64	0	48
47	137	0	74
47	269	0	94
47	469	0	103
47	669	0	112
47	770	0	115
47	812	0	123
47	875	0	123
47	1002	0	125
47	1158	0	130
47	1188	0	130
47	1380	0	136
47	1478	0	137
47	1510	0	137
47	1520	0	137
47	1678	0	137
47	2236	0	139
47	2264	0	140
47	2408	0	140
47	2448	0	140
47	2602	0	141
47	2990	0	141
47	3792	0	141
47	4212	0	141
47	4808	0	142
47	4820	0	142
47	4960	0	142
47	5040	0	142
48	66	0	49
48	73	0	51
48	280	0	94
48	408	0	102
48	498	0	103
48	532	0	103
48	603	0	110
48	622	0	110
48	655	0	112
48	935	0	125
48	973	0	125
48	1184	0	130
48	1230	0	130
48	1598	0	137
48	2104	0	139
48	2848	0	141
48	2918	0	141
48	3212	0	141
48	3924	0	141
48	3952	0	141
48	4440	0	141
49	69	0	50
49	127	0	71
49	225	0	92
49	248	0	93
49	370	0	101
49	451	0	103
49	477	0	103
49	491	0	103
49	516	0	103
49	839	0	123
49	888	0	123
49	964	0	125
49	981	0	125
49	1058	0	129
49	1066	0	129
49	1180	0	130
49	1328	0	133
49	1468	0	137
49	1580	0	137
49	1636	0	137
49	1766	0	137
49	1910	0	138
49	2102	0	139
49	2180	0	139
49	2258	0	140
49	2750	0	141
49	2820	0	141
49	2890	0	141
49	2980	0	141
49	3288	0	141
49	3728	0	141
49	4908	0	142
49	5076	0	142
50	70	0	51
50	72	0	51
50	194	0	87
50	394	0	102
50	397	0	102
50	487	0	103
50	497	0	103
50	533	0	103
50	591	0	110
50	596	0	110
50	616	0	110
50	659	0	112
50	718	0	115
50	830	0	123
50	870	0	123
50	874	0	123
50	910	0	124
50	959	0	125
50	977	0	125
50	1080	0	129
50	1152	0	130
50	1164	0	130
50	1404	0	136
50	1458	0	137
50	1606	0	137
50	1672	0	137
50	1782	0	137
50	2390	0	140
50	2718	0	141
50	2882	0	141
50	3268	0	141
50	3404	0	141
50	3812	0	141
50	4192	0	141
50	4588	0	141
50	4600	0	141
50	4828	0	142
50	4976	0	142
50	4984	0	142
50	5088	0	143
51	74	0	52
51	150	0	76
51	238	0	93
51	587	0	110
51	872	0	123
51	934	0	125
51	1582	0	137
51	1750	0	137
51	2124	0	139
51	2242	0	139
51	2338	0	140
51	2350	0	140
51	2386	0	140
51	2420	0	140
51	2772	0	141
51	3384	0	141
51	3408	0	141
51	3440	0	141
52	77	0	53
52	160	0	77
52	233	0	93
52	421	0	102
52	457	0	103
52	494	0	103
52	649	0	112
52	720	0	115
52	854	0	123
52	873	0	123
52	909	0	124
52	1182	0	130
52	1186	0	130
52	1212	0	130
52	1320	0	130
52	1770	0	137
52	1902	0	138
52	2018	0	138
52	3124	0	141
52	3292	0	141
52	4524	0	141
52	4532	0	141
52	4940	0	142
52	4964	0	142
53	79	0	54
53	98	0	63
53	247	0	93
53	363	0	101
53	478	0	103
53	756	0	115
53	817	0	123
53	864	0	123
53	1288	0	130
53	1440	0	136
53	1576	0	137
53	1740	0	137
53	1780	0	137
53	1810	0	138
53	1868	0	138
53	1894	0	138
53	2022	0	138
53	2352	0	140
53	2812	0	141
53	3232	0	141
53	3316	0	141
53	3424	0	141
53	3572	0	141
53	3680	0	141
53	4916	0	142
54	80	0	55
54	333	0	98
54	339	0	98
54	514	0	103
54	534	0	103
54	580	0	110
54	612	0	110
54	753	0	115
54	757	0	115
54	942	0	125
54	1068	0	129
54	1340	0	135
54	1578	0	137
54	1694	0	137
54	1720	0	137
54	1736	0	137
54	1774	0	137
54	1906	0	138
54	2036	0	138
54	2092	0	139
54	2562	0	141
54	2836	0	141
54	3036	0	141
54	3260	0	141
54	3904	0	141
54	4124	0	141
55	81	0	56
55	142	0	75
55	217	0	90
55	222	0	91
55	293	0	95
55	375	0	101
55	378	0	101
55	422	0	102
55	444	0	103
55	499	0	103
55	527	0	103
55	530	0	103
55	536	0	103
55	589	0	110
55	606	0	110
55	611	0	110
55	797	0	118
55	809	0	123
55	955	0	125
55	1074	0	129
55	1244	0	130
55	1350	0	136
55	1422	0	136
55	1492	0	137
55	1524	0	137
55	1724	0	137
55	1804	0	138
55	1818	0	138
55	1876	0	138
55	2024	0	138
55	2088	0	139
55	2136	0	139
55	2182	0	139
55	2230	0	139
55	2362	0	140
55	2366	0	140
55	2814	0	141
55	3184	0	141
55	3796	0	141
55	4484	0	141
55	5012	0	142
55	5060	0	142
56	83	0	57
56	371	0	101
56	505	0	103
56	510	0	103
56	737	0	115
56	748	0	115
56	868	0	123
56	990	0	125
56	1062	0	129
56	1234	0	130
56	1318	0	130
56	1412	0	136
56	1730	0	137
56	2050	0	138
56	2138	0	139
56	2430	0	140
56	2544	0	140
56	2738	0	141
56	3432	0	141
56	3824	0	141
56	3928	0	141
56	4128	0	141
56	4144	0	141
56	4656	0	141
57	84	0	58
57	219	0	90
57	312	0	97
57	425	0	102
57	476	0	103
57	535	0	103
57	749	0	115
57	768	0	115
57	827	0	123
57	861	0	123
57	898	0	124
57	1008	0	125
57	1174	0	130
57	1480	0	137
57	1830	0	138
57	2114	0	139
57	2438	0	140
57	2450	0	140
57	2554	0	140
57	2710	0	141
57	3436	0	141
57	4236	0	141
57	4800	0	142
58	85	0	59
58	145	0	75
58	151	0	76
58	196	0	87
58	354	0	101
58	360	0	101
58	368	0	101
58	456	0	103
58	588	0	110
58	595	0	110
58	613	0	110
58	838	0	123
58	866	0	123
58	965	0	125
58	1344	0	135
58	1410	0	136
58	1434	0	136
58	1438	0	136
58	1494	0	137
58	1746	0	137
58	1904	0	138
58	2584	0	141
58	2706	0	141
58	2712	0	141
58	2920	0	141
58	3088	0	141
58	3264	0	141
58	3296	0	141
58	3412	0	141
58	4132	0	141
58	4584	0	141
58	4892	0	142
59	88	0	60
59	90	0	61
59	167	0	78
59	290	0	95
59	393	0	102
59	402	0	102
59	443	0	103
59	495	0	103
59	509	0	103
59	511	0	103
59	571	0	109
59	599	0	110
59	621	0	110
59	754	0	115
59	759	0	115
59	832	0	123
59	885	0	123
59	986	0	125
59	1484	0	137
59	1564	0	137
59	2428	0	140
59	2748	0	141
59	3004	0	141
59	3692	0	141
59	4544	0	141
59	4788	0	142
60	89	0	61
60	157	0	77
60	256	0	94
60	396	0	102
60	445	0	103
60	529	0	103
60	572	0	109
60	581	0	110
60	597	0	110
60	722	0	115
60	732	0	115
60	957	0	125
60	974	0	125
60	1000	0	125
60	1054	0	129
60	1064	0	129
60	1216	0	130
60	1220	0	130
60	1242	0	130
60	1312	0	130
60	1390	0	136
60	1506	0	137
60	1722	0	137
60	1794	0	138
60	2224	0	139
60	2248	0	139
60	2406	0	140
60	2726	0	141
60	2898	0	141
60	2994	0	141
60	3044	0	141
60	3304	0	141
60	3428	0	141
60	3788	0	141
60	3808	0	141
60	3852	0	141
60	4416	0	141
60	4512	0	141
60	4928	0	142
61	96	0	62
61	169	0	78
61	200	0	88
61	223	0	91
61	464	0	103
61	468	0	103
61	605	0	110
61	632	0	110
61	1012	0	125
61	1314	0	130
61	1376	0	136
61	1392	0	136
61	1570	0	137
61	1574	0	137
61	1608	0	137
61	1900	0	138
61	2410	0	140
61	3168	0	141
61	3248	0	141
61	3448	0	141
61	3548	0	141
61	3600	0	141
61	3872	0	141
61	3912	0	141
61	4084	0	141
61	4604	0	141
61	4856	0	142
61	5072	0	142
62	97	0	63
62	250	0	93
62	291	0	95
62	359	0	101
62	374	0	101
62	390	0	102
62	398	0	102
62	419	0	102
62	526	0	103
62	531	0	103
62	592	0	110
62	598	0	110
62	623	0	110
62	738	0	115
62	815	0	123
62	865	0	123
62	883	0	123
62	905	0	124
62	911	0	124
62	1148	0	130
62	1310	0	130
62	1384	0	136
62	1436	0	136
62	1460	0	137
62	1692	0	137
62	1872	0	138
62	1890	0	138
62	2174	0	139
62	2344	0	140
62	2436	0	140
62	2440	0	140
62	2824	0	141
62	2828	0	141
62	3008	0	141
62	3096	0	141
62	3188	0	141
62	3224	0	141
62	3280	0	141
62	3324	0	141
62	3596	0	141
62	4140	0	141
62	4268	0	141
63	99	0	64
63	195	0	87
63	281	0	94
63	412	0	102
63	439	0	103
63	483	0	103
63	653	0	112
63	661	0	112
63	745	0	115
63	794	0	118
63	871	0	123
63	984	0	125
63	1076	0	129
63	1416	0	136
63	1534	0	137
63	1742	0	137
63	1844	0	138
63	2368	0	140
63	2374	0	140
63	2558	0	140
63	2724	0	141
63	2730	0	141
63	2808	0	141
63	3032	0	141
63	3084	0	141
63	3192	0	141
63	3244	0	141
63	3336	0	141
63	3840	0	141
63	4936	0	142
64	104	0	65
64	793	0	118
64	933	0	125
64	1104	0	129
64	1948	0	138
64	2292	0	140
64	4780	0	142
65	105	0	66
65	113	0	68
65	437	0	103
65	538	0	103
65	547	0	106
65	792	0	118
65	931	0	124
65	1916	0	138
65	2522	0	140
65	4012	0	141
65	4048	0	141
66	107	0	67
66	541	0	104
66	558	0	109
66	1096	0	129
66	1100	0	129
66	1956	0	138
66	1966	0	138
66	2290	0	140
66	2526	0	140
66	2626	0	141
66	2660	0	141
66	3464	0	141
66	4148	0	141
66	4172	0	141
66	4664	0	141
67	111	0	68
67	683	0	114
67	1120	0	129
67	1940	0	138
67	1980	0	138
67	2322	0	140
67	2494	0	140
67	2638	0	141
67	2684	0	141
67	3488	0	141
67	4316	0	141
67	4736	0	141
68	118	0	69
68	252	0	93
68	311	0	97
68	450	0	103
68	518	0	103
68	570	0	109
68	729	0	115
68	808	0	123
68	813	0	123
68	906	0	124
68	1218	0	130
68	1388	0	136
68	1428	0	136
68	1448	0	137
68	1614	0	137
68	2340	0	140
68	2546	0	140
68	2586	0	141
68	2792	0	141
68	2886	0	141
68	3400	0	141
68	4220	0	141
68	4472	0	141
68	5056	0	142
69	120	0	70
69	122	0	70
69	355	0	101
69	459	0	103
69	569	0	109
69	579	0	110
69	625	0	110
69	723	0	115
69	841	0	123
69	882	0	123
69	887	0	123
69	1252	0	130
69	1530	0	137
69	1640	0	137
69	2134	0	139
69	2176	0	139
69	3628	0	141
69	3864	0	141
69	3876	0	141
69	3944	0	141
69	4216	0	141
69	4380	0	141
69	4508	0	141
70	125	0	71
70	193	0	87
70	218	0	90
70	284	0	94
70	492	0	103
70	515	0	103
70	584	0	110
70	601	0	110
70	713	0	115
70	734	0	115
70	747	0	115
70	908	0	124
70	954	0	125
70	976	0	125
70	1060	0	129
70	1078	0	129
70	1308	0	130
70	1358	0	136
70	1586	0	137
70	1728	0	137
70	1754	0	137
70	1870	0	138
70	2030	0	138
70	2128	0	139
70	2168	0	139
70	2194	0	139
70	2560	0	141
70	2822	0	141
70	2846	0	141
70	2902	0	141
70	2914	0	141
70	3276	0	141
70	3420	0	141
70	4400	0	141
70	4412	0	141
70	4424	0	141
70	4576	0	141
70	4616	0	141
70	4904	0	142
70	5004	0	142
70	5048	0	142
71	129	0	72
71	139	0	74
71	156	0	77
71	170	0	78
71	258	0	94
71	356	0	101
71	493	0	103
71	520	0	103
71	564	0	109
71	573	0	109
71	726	0	115
71	819	0	123
71	966	0	125
71	970	0	125
71	1082	0	129
71	1202	0	130
71	1584	0	137
71	1690	0	137
71	1840	0	138
71	1864	0	138
71	2198	0	139
71	2556	0	140
71	2934	0	141
71	3640	0	141
71	3756	0	141
71	3772	0	141
71	4088	0	141
71	4284	0	141
72	134	0	73
72	271	0	94
72	367	0	101
72	400	0	102
72	406	0	102
72	466	0	103
72	485	0	103
72	489	0	103
72	666	0	112
72	728	0	115
72	816	0	123
72	880	0	123
72	1048	0	129
72	1056	0	129
72	1874	0	138
72	2038	0	138
72	2336	0	140
72	2954	0	141
72	3092	0	141
72	3636	0	141
72	3832	0	141
72	3860	0	141
73	136	0	74
73	307	0	97
73	428	0	102
73	777	0	115
73	851	0	123
73	924	0	124
73	2324	0	140
73	2328	0	140
73	2458	0	140
73	2534	0	140
73	2690	0	141
73	2858	0	141
73	3460	0	141
74	140	0	75
74	144	0	75
74	154	0	77
74	257	0	94
74	379	0	101
74	413	0	102
74	424	0	102
74	524	0	103
74	814	0	123
74	1014	0	125
74	1136	0	130
74	1250	0	130
74	1402	0	136
74	1414	0	136
74	1560	0	137
74	1596	0	137
74	1744	0	137
74	1788	0	137
74	1850	0	138
74	1854	0	138
74	2040	0	138
74	2106	0	139
74	2156	0	139
74	2260	0	140
74	2364	0	140
74	2446	0	140
74	3140	0	141
74	3252	0	141
74	3704	0	141
74	3768	0	141
74	3848	0	141
74	3896	0	141
74	4824	0	142
75	147	0	76
75	149	0	76
75	155	0	77
75	166	0	78
75	226	0	92
75	267	0	94
75	286	0	94
75	410	0	102
75	517	0	103
75	652	0	112
75	668	0	112
75	735	0	115
75	796	0	118
75	835	0	123
75	837	0	123
75	971	0	125
75	1150	0	130
75	1156	0	130
75	1162	0	130
75	1178	0	130
75	1616	0	137
75	1654	0	137
75	1792	0	138
75	1798	0	138
75	1838	0	138
75	2356	0	140
75	3100	0	141
75	3272	0	141
75	3916	0	141
76	153	0	77
76	431	0	103
76	470	0	103
76	664	0	112
76	675	0	112
76	994	0	125
76	996	0	125
76	1474	0	137
76	1498	0	137
76	2606	0	141
76	3800	0	141
76	4592	0	141
76	4792	0	142
76	4812	0	142
76	4952	0	142
77	163	0	78
77	165	0	78
77	239	0	93
77	262	0	94
77	590	0	110
77	742	0	115
77	1166	0	130
77	1248	0	130
77	1360	0	136
77	1482	0	137
77	1662	0	137
77	2090	0	139
77	2346	0	140
77	2550	0	140
77	2708	0	141
77	2796	0	141
77	2840	0	141
77	3376	0	141
77	3612	0	141
77	4136	0	141
77	4436	0	141
77	4444	0	141
77	4572	0	141
78	173	0	79
78	300	0	95
78	391	0	102
78	488	0	103
78	566	0	109
78	627	0	110
78	631	0	110
78	750	0	115
78	969	0	125
78	1046	0	129
78	1140	0	130
78	1170	0	130
78	1246	0	130
78	1322	0	131
78	1366	0	136
78	1732	0	137
78	1756	0	137
78	1778	0	137
78	1862	0	138
78	2032	0	138
78	2054	0	138
78	2172	0	139
78	2358	0	140
78	2372	0	140
78	2388	0	140
78	2412	0	140
78	3320	0	141
78	3544	0	141
78	3632	0	141
78	3648	0	141
78	3684	0	141
78	4500	0	141
79	174	0	80
79	180	0	84
79	211	0	89
79	628	0	110
79	725	0	115
79	860	0	123
79	902	0	124
79	940	0	125
79	1146	0	130
79	1268	0	130
79	1552	0	137
79	1708	0	137
79	2252	0	140
79	2256	0	140
79	2568	0	141
79	2768	0	141
79	2932	0	141
79	2978	0	141
79	3732	0	141
79	3744	0	141
79	3752	0	141
79	4996	0	142
80	176	0	81
80	192	0	87
80	337	0	98
80	894	0	124
80	947	0	125
80	1264	0	130
80	1294	0	130
80	1544	0	137
80	1704	0	137
80	1714	0	137
80	2084	0	139
80	2100	0	139
80	2378	0	140
80	2416	0	140
80	2564	0	141
80	2834	0	141
80	2910	0	141
80	2958	0	141
80	3024	0	141
80	4612	0	141
81	177	0	82
81	181	0	84
81	824	0	123
81	896	0	124
81	1260	0	130
81	1274	0	130
81	2960	0	141
81	3348	0	141
82	178	0	83
82	182	0	84
82	208	0	89
82	210	0	89
82	213	0	90
82	629	0	110
82	859	0	123
82	1258	0	130
82	1304	0	130
82	1712	0	137
82	2776	0	141
82	3748	0	141
82	4252	0	141
83	179	0	84
83	186	0	86
83	188	0	86
83	951	0	125
83	1144	0	130
83	1300	0	130
83	1546	0	137
83	4248	0	141
84	184	0	85
84	709	0	115
84	904	0	124
84	945	0	125
84	1266	0	130
84	1548	0	137
84	1718	0	137
84	2118	0	139
84	2400	0	140
84	2830	0	141
84	3356	0	141
84	3364	0	141
84	3592	0	141
85	185	0	86
85	187	0	86
85	1276	0	130
85	3360	0	141
86	191	0	87
86	202	0	88
86	204	0	88
86	206	0	89
86	314	0	97
86	318	0	98
86	385	0	101
86	392	0	102
86	521	0	103
86	751	0	115
86	761	0	115
86	856	0	123
86	858	0	123
86	897	0	124
86	1010	0	125
86	1272	0	130
86	1286	0	130
86	1618	0	137
86	1656	0	137
86	1748	0	137
86	1822	0	138
86	2094	0	139
86	2098	0	139
86	2116	0	139
86	2250	0	139
86	2404	0	140
86	2714	0	141
86	2756	0	141
86	2764	0	141
86	2778	0	141
86	2844	0	141
86	3064	0	141
86	3132	0	141
86	3216	0	141
86	3308	0	141
86	3344	0	141
86	3880	0	141
86	4100	0	141
86	4240	0	141
87	197	0	88
87	243	0	93
87	287	0	94
87	294	0	95
87	441	0	103
87	449	0	103
87	578	0	110
87	607	0	110
87	635	0	110
87	774	0	115
87	828	0	123
87	1210	0	130
87	1444	0	136
87	1500	0	137
87	1790	0	137
87	1884	0	138
87	2444	0	140
87	2700	0	141
87	2904	0	141
87	3416	0	141
87	4272	0	141
87	4884	0	142
87	4896	0	142
87	5032	0	142
87	5068	0	142
88	205	0	89
88	299	0	95
88	342	0	98
88	889	0	123
88	891	0	124
88	893	0	124
88	961	0	125
88	1734	0	137
88	1776	0	137
88	2056	0	138
88	2082	0	139
88	2096	0	139
89	212	0	90
89	365	0	101
89	369	0	101
89	855	0	123
89	1070	0	129
89	1342	0	135
89	1352	0	136
89	2086	0	139
89	2434	0	140
89	2592	0	141
89	2722	0	141
89	2770	0	141
89	2774	0	141
89	2842	0	141
89	3372	0	141
89	3672	0	141
89	3696	0	141
89	4120	0	141
89	4256	0	141
89	4280	0	141
90	220	0	91
90	282	0	94
90	407	0	102
90	438	0	103
90	465	0	103
90	537	0	103
90	660	0	112
90	662	0	112
90	930	0	124
90	1094	0	129
90	1134	0	129
90	1228	0	130
90	1232	0	130
90	1650	0	137
90	1670	0	137
90	1808	0	138
90	1816	0	138
90	1828	0	138
90	2016	0	138
90	2542	0	140
90	3388	0	141
90	4376	0	141
90	4660	0	141
90	5092	0	144
91	224	0	92
91	270	0	94
91	479	0	103
91	506	0	103
91	1050	0	129
91	1240	0	130
91	1408	0	136
91	1634	0	137
91	1768	0	137
91	1826	0	138
91	2234	0	139
91	2382	0	140
91	2432	0	140
91	2966	0	141
91	2992	0	141
91	3128	0	141
91	3256	0	141
91	3820	0	141
91	4112	0	141
91	4384	0	141
91	4396	0	141
91	5016	0	142
91	5028	0	142
91	5052	0	142
91	5096	0	145
92	230	0	93
92	264	0	94
92	341	0	98
92	416	0	102
92	420	0	102
92	434	0	103
92	486	0	103
92	656	0	112
92	736	0	115
92	767	0	115
92	1192	0	130
92	1556	0	137
92	1668	0	137
92	1842	0	138
92	1858	0	138
92	2396	0	140
92	2884	0	141
92	2892	0	141
92	3200	0	141
92	3892	0	141
92	4264	0	141
92	4420	0	141
93	255	0	94
93	295	0	95
93	448	0	103
93	575	0	109
93	1018	0	125
93	1022	0	126
93	1504	0	137
93	2202	0	139
93	3520	0	141
93	3564	0	141
94	289	0	95
94	334	0	98
94	594	0	110
94	610	0	110
94	651	0	112
94	807	0	123
94	820	0	123
94	1044	0	129
94	1200	0	130
94	1338	0	134
94	1356	0	136
94	1372	0	136
94	1406	0	136
94	1464	0	137
94	1588	0	137
94	1642	0	137
94	2160	0	139
94	2192	0	139
94	2228	0	139
94	2590	0	141
94	2780	0	141
94	2938	0	141
94	2998	0	141
94	3068	0	141
94	3552	0	141
94	3560	0	141
94	3688	0	141
94	3736	0	141
94	3760	0	141
94	4276	0	141
94	5084	0	142
95	304	0	96
95	673	0	112
95	773	0	115
95	1518	0	137
95	1680	0	137
95	1684	0	137
95	2694	0	141
95	2856	0	141
95	4868	0	142
96	305	0	97
96	721	0	115
96	978	0	125
96	988	0	125
96	1016	0	125
96	1378	0	136
96	1382	0	136
96	1686	0	137
96	2262	0	140
96	2342	0	140
96	2804	0	141
96	2996	0	141
96	3516	0	141
96	3780	0	141
96	4480	0	141
96	4636	0	141
96	4852	0	142
96	4944	0	142
97	315	0	98
97	335	0	98
97	821	0	123
97	939	0	125
97	944	0	125
97	946	0	125
97	1590	0	137
97	2212	0	139
97	2572	0	141
97	2576	0	141
97	2766	0	141
97	2784	0	141
97	3584	0	141
98	346	0	99
98	350	0	101
98	677	0	112
98	1508	0	137
98	2148	0	139
98	2186	0	139
99	347	0	100
99	349	0	101
99	678	0	112
99	997	0	125
99	1472	0	137
99	1676	0	137
100	348	0	101
100	608	0	110
100	679	0	112
100	847	0	123
100	1514	0	137
100	4836	0	142
100	5036	0	142
101	388	0	102
101	823	0	123
101	938	0	125
101	1256	0	130
101	1278	0	130
101	1282	0	130
101	1540	0	137
101	1706	0	137
101	2254	0	140
102	430	0	103
102	502	0	103
102	680	0	112
102	843	0	123
102	845	0	123
102	848	0	123
102	995	0	125
102	2608	0	141
102	4840	0	142
103	539	0	104
103	1132	0	129
103	1950	0	138
103	4164	0	141
103	4668	0	141
104	544	0	105
104	692	0	114
104	700	0	115
104	1122	0	129
104	1958	0	138
104	1978	0	138
104	2270	0	140
104	2482	0	140
104	2516	0	140
104	2622	0	141
104	2636	0	141
104	2860	0	141
104	2866	0	141
104	2870	0	141
104	4056	0	141
104	4320	0	141
104	4328	0	141
104	4360	0	141
105	546	0	106
105	640	0	111
105	695	0	115
105	779	0	115
105	788	0	118
105	1098	0	129
105	1102	0	129
105	1124	0	129
105	1944	0	138
105	1972	0	138
105	2294	0	140
105	2306	0	140
105	2468	0	140
105	2624	0	141
105	2656	0	141
105	3992	0	141
105	4052	0	141
105	4156	0	141
105	4168	0	141
105	4296	0	141
105	4344	0	141
106	548	0	107
106	550	0	107
106	552	0	107
106	687	0	114
106	699	0	115
106	791	0	118
106	1130	0	129
106	1918	0	138
106	1962	0	138
106	1976	0	138
106	1988	0	138
106	2006	0	138
106	2274	0	140
106	2662	0	141
106	4336	0	141
106	4700	0	141
106	4772	0	142
107	553	0	108
107	644	0	111
107	1928	0	138
107	2630	0	141
107	4312	0	141
107	4324	0	141
107	4692	0	141
108	554	0	109
108	556	0	109
108	1108	0	129
108	1116	0	129
108	1934	0	138
108	1992	0	138
108	2276	0	140
108	2634	0	141
108	2664	0	141
108	4708	0	141
109	576	0	110
109	609	0	110
109	1024	0	126
109	2188	0	139
109	2204	0	139
109	2226	0	139
110	638	0	111
110	1960	0	138
110	1982	0	138
110	2318	0	140
110	2628	0	141
110	3468	0	141
110	4356	0	141
110	4364	0	141
110	4748	0	141
111	645	0	112
111	789	0	118
111	1112	0	129
111	1924	0	138
111	1930	0	138
111	2008	0	138
111	2280	0	140
111	2472	0	140
111	2492	0	140
111	3480	0	141
111	4004	0	141
111	4024	0	141
112	681	0	113
112	849	0	123
112	2610	0	141
112	2650	0	141
112	2680	0	141
113	682	0	114
113	2640	0	141
113	2682	0	141
113	2686	0	141
114	694	0	115
114	783	0	116
114	790	0	118
114	1926	0	138
114	1994	0	138
114	2002	0	138
114	2278	0	140
114	2296	0	140
114	2478	0	140
114	2490	0	140
114	2670	0	141
114	4032	0	141
114	4348	0	141
115	782	0	116
115	1936	0	138
115	2508	0	140
115	4308	0	141
115	4696	0	141
115	4704	0	141
116	784	0	117
116	2486	0	140
116	2502	0	140
116	2862	0	141
116	4028	0	141
116	4724	0	141
117	785	0	118
117	787	0	118
117	1090	0	129
117	1110	0	129
117	1118	0	129
117	1922	0	138
117	1970	0	138
117	1996	0	138
117	2302	0	140
117	2466	0	140
117	2658	0	141
117	2688	0	141
117	3496	0	141
117	4332	0	141
117	4732	0	141
117	4740	0	141
117	4756	0	141
118	799	0	119
118	806	0	123
118	2190	0	139
118	2206	0	139
118	2210	0	139
118	3536	0	141
119	800	0	120
119	803	0	122
119	2208	0	139
119	3524	0	141
120	801	0	121
120	805	0	123
120	3528	0	141
121	802	0	122
121	1030	0	127
122	804	0	123
122	1034	0	128
123	890	0	124
123	892	0	124
124	932	0	125
124	1106	0	129
124	1954	0	138
124	1998	0	138
124	2004	0	138
124	2284	0	140
124	2304	0	140
124	2480	0	140
124	2498	0	140
124	2504	0	140
124	2668	0	141
124	4000	0	141
124	4016	0	141
124	4036	0	141
124	4044	0	141
124	4160	0	141
124	4300	0	141
125	1020	0	126
125	1026	0	126
125	1036	0	128
125	1040	0	128
125	2944	0	141
126	1028	0	127
126	3532	0	141
127	1032	0	128
127	1038	0	128
127	2942	0	141
128	1042	0	129
128	2940	0	141
128	2946	0	141
129	1986	0	138
129	2488	0	140
129	2506	0	140
129	2666	0	141
129	4304	0	141
129	4712	0	141
129	4720	0	141
130	2058	0	138
130	2080	0	139
131	2060	0	138
132	2062	0	138
132	2068	0	138
133	2064	0	138
133	2074	0	138
133	2078	0	139
134	2066	0	138
134	2072	0	138
135	2070	0	138
136	2076	0	139
137	2310	0	140
138	2642	0	141
139	4716	0	141

