version 3
run General-92-20250904-14:13:14-15351
attr configname General
attr datetime 20250904-14:13:14
attr datetimef 20250904-141314
attr experiment General
attr inifile omnetpp.ini
attr iterationvars ""
attr iterationvarsd ""
attr iterationvarsf ""
attr measurement ""
attr network TaxiNetwork
attr processid 15351
attr repetition 92
attr replication #92
attr resultdir results
attr runnumber 92
attr seedset 92
config network TaxiNetwork
config seed-set 92
config num-rngs 1
config sim-time-limit 10s
config repeat 500
config *.numWalkers 1
config *.enableDuplication true
config *.rc 700
config **.node[0].xCor 2933
config **.node[0].yCor 2747
config **.node[1].xCor 2919
config **.node[1].yCor 2817
config **.node[2].xCor 2910
config **.node[2].yCor 2861
config **.node[3].xCor 2429
config **.node[3].yCor 2851
config **.node[4].xCor 2908
config **.node[4].yCor 2714
config **.node[5].xCor 2606
config **.node[5].yCor 2722
config **.node[6].xCor 2575
config **.node[6].yCor 2753
config **.node[7].xCor 2654
config **.node[7].yCor 2513
config **.node[8].xCor 2773
config **.node[8].yCor 2580
config **.node[9].xCor 3043
config **.node[9].yCor 2780
config **.node[10].xCor 3020
config **.node[10].yCor 2813
config **.node[11].xCor 2599
config **.node[11].yCor 2300
config **.node[12].xCor 2917
config **.node[12].yCor 2698
config **.node[13].xCor 2625
config **.node[13].yCor 2641
config **.node[14].xCor 2604
config **.node[14].yCor 2790
config **.node[15].xCor 2786
config **.node[15].yCor 3082
config **.node[16].xCor 2603
config **.node[16].yCor 2802
config **.node[17].xCor 2637
config **.node[17].yCor 2869
config **.node[18].xCor 2675
config **.node[18].yCor 2955
config **.node[19].xCor 2845
config **.node[19].yCor 2937
config **.node[20].xCor 2860
config **.node[20].yCor 2888
config **.node[21].xCor 2843
config **.node[21].yCor 4158
config **.node[22].xCor 2852
config **.node[22].yCor 4017
config **.node[23].xCor 2892
config **.node[23].yCor 4961
config **.node[24].xCor 2313
config **.node[24].yCor 3993
config **.node[25].xCor 2891
config **.node[25].yCor 4959
config **.node[26].xCor 2370
config **.node[26].yCor 4050
config **.node[27].xCor 2788
config **.node[27].yCor 3958
config **.node[28].xCor 2819
config **.node[28].yCor 4428
config **.node[29].xCor 2790
config **.node[29].yCor 3761
config **.node[30].xCor 2809
config **.node[30].yCor 2908
config **.node[31].xCor 2919
config **.node[31].yCor 3575
config **.node[32].xCor 2946
config **.node[32].yCor 3466
config **.node[33].xCor 2911
config **.node[33].yCor 3453
config **.node[34].xCor 2370
config **.node[34].yCor 3656
config **.node[35].xCor 2438
config **.node[35].yCor 3738
config **.node[36].xCor 2737
config **.node[36].yCor 3570
config **.node[37].xCor 2921
config **.node[37].yCor 3698
config **.node[38].xCor 2907
config **.node[38].yCor 5197
config **.node[39].xCor 2860
config **.node[39].yCor 3852
config **.node[40].xCor 2927
config **.node[40].yCor 3684
config **.node[41].xCor 3023
config **.node[41].yCor 5313
config **.node[42].xCor 3220
config **.node[42].yCor 5811
config **.node[43].xCor 3432
config **.node[43].yCor 5715
config **.node[44].xCor 2754
config **.node[44].yCor 2463
config **.node[45].xCor 2646
config **.node[45].yCor 2673
config **.node[46].xCor 3051
config **.node[46].yCor 2792
config **.node[47].xCor 1666
config **.node[47].yCor 3697
config **.node[48].xCor 1662
config **.node[48].yCor 3694
config **.node[49].xCor 1664
config **.node[49].yCor 3667
config **.node[50].xCor 1660
config **.node[50].yCor 3664
config **.node[51].xCor 1710
config **.node[51].yCor 3573
config **.node[52].xCor 2082
config **.node[52].yCor 2650
config **.node[53].xCor 2086
config **.node[53].yCor 2657
config **.node[54].xCor 2257
config **.node[54].yCor 3232
config **.node[55].xCor 2258
config **.node[55].yCor 3225
config **.node[56].xCor 1926
config **.node[56].yCor 2570
config **.node[57].xCor 1926
config **.node[57].yCor 2576
config **.node[58].xCor 2104
config **.node[58].yCor 1758
config **.node[59].xCor 1957
config **.node[59].yCor 1826
config **.node[60].xCor 3473
config **.node[60].yCor 1523
config **.node[61].xCor 3335
config **.node[61].yCor 1726
config **.node[62].xCor 3478
config **.node[62].yCor 1517
config **.node[63].xCor 3386
config **.node[63].yCor 2119
config **.node[64].xCor 3474
config **.node[64].yCor 1762
config **.node[65].xCor 3797
config **.node[65].yCor 2099
config **.node[66].xCor 3642
config **.node[66].yCor 2136
config **.node[67].xCor 3481
config **.node[67].yCor 2334
config **.node[68].xCor 3088
config **.node[68].yCor 1505
config **.node[69].xCor 3037
config **.node[69].yCor 1693
config **.node[70].xCor 3026
config **.node[70].yCor 1700
config **.node[71].xCor 3019
config **.node[71].yCor 669
config **.node[72].xCor 3513
config **.node[72].yCor 1358
config **.node[73].xCor 3545
config **.node[73].yCor 1230
config **.node[74].xCor 4228
config **.node[74].yCor 4220
config **.node[75].xCor 3379
config **.node[75].yCor 1207
config **.node[76].xCor 3596
config **.node[76].yCor 963
config **.node[77].xCor 3637
config **.node[77].yCor 1188
config **.node[78].xCor 3759
config **.node[78].yCor 1030
config **.node[79].xCor 2918
config **.node[79].yCor 1455
config **.node[80].xCor 2711
config **.node[80].yCor 1297
config **.node[81].xCor 439
config **.node[81].yCor 1623
config **.node[82].xCor 2857
config **.node[82].yCor 3581
config **.node[83].xCor 2858
config **.node[83].yCor 3584
config **.node[84].xCor 2999
config **.node[84].yCor 2636
config **.node[85].xCor 2905
config **.node[85].yCor 2778
config **.node[86].xCor 2653
config **.node[86].yCor 2845
config **.node[87].xCor 2864
config **.node[87].yCor 2836
config **.node[88].xCor 2426
config **.node[88].yCor 2892
config **.node[89].xCor 2964
config **.node[89].yCor 2804
config **.node[90].xCor 2586
config **.node[90].yCor 3135
config **.node[91].xCor 2864
config **.node[91].yCor 2980
config **.node[92].xCor 2527
config **.node[92].yCor 3219
config **.node[93].xCor 2863
config **.node[93].yCor 3142
config **.node[94].xCor 2485
config **.node[94].yCor 3269
config **.node[95].xCor 2653
config **.node[95].yCor 1065
config **.node[96].xCor 4062
config **.node[96].yCor 400
config **.node[97].xCor 5762
config **.node[97].yCor 3023
config **.node[98].xCor 1414
config **.node[98].yCor 3461
config **.node[99].xCor 2911
config **.node[99].yCor 1737
config **.node[100].xCor 2595
config **.node[100].yCor 2299
config **.node[101].xCor 2702
config **.node[101].yCor 3419
config **.node[102].xCor 2813
config **.node[102].yCor 3307
config **.node[103].xCor 2638
config **.node[103].yCor 2258
config **.node[104].xCor 2590
config **.node[104].yCor 3125
config **.node[105].xCor 1856
config **.node[105].yCor 2990
config **.node[106].xCor 1894
config **.node[106].yCor 2239
config **.node[107].xCor 383
config **.node[107].yCor 1251
config **.node[108].xCor 3447
config **.node[108].yCor 5489
config **.node[109].xCor 3450
config **.node[109].yCor 5697
config **.node[110].xCor 2719
config **.node[110].yCor 1920
config **.node[111].xCor 2085
config **.node[111].yCor 2389
config **.node[112].xCor 1910
config **.node[112].yCor 2548
config **.node[113].xCor 2069
config **.node[113].yCor 2050
config **.node[114].xCor 2184
config **.node[114].yCor 2209
config **.node[115].xCor 2278
config **.node[115].yCor 2390
config **.node[116].xCor 2249
config **.node[116].yCor 2299
config **.node[117].xCor 2356
config **.node[117].yCor 2303
config **.node[118].xCor 2192
config **.node[118].yCor 2475
config **.node[119].xCor 1720
config **.node[119].yCor 2911
config **.node[120].xCor 2400
config **.node[120].yCor 2887
config **.node[121].xCor 3344
config **.node[121].yCor 1890
config **.node[122].xCor 3136
config **.node[122].yCor 2418
config **.node[123].xCor 3243
config **.node[123].yCor 2525
config **.node[124].xCor 2396
config **.node[124].yCor 1267
config **.node[125].xCor 467
config **.node[125].yCor 1875
config **.node[126].xCor 3506
config **.node[126].yCor 1221
config **.node[127].xCor 1034
config **.node[127].yCor 1474
config **.node[128].xCor 2908
config **.node[128].yCor 1784
config **.node[129].xCor 2876
config **.node[129].yCor 1761
config **.node[130].xCor 2849
config **.node[130].yCor 1795
config **.node[131].xCor 3029
config **.node[131].yCor 1859
config **.node[132].xCor 2924
config **.node[132].yCor 1848
config **.node[133].xCor 3493
config **.node[133].yCor 1559
config **.node[134].xCor 2760
config **.node[134].yCor 1761
config **.node[135].xCor 1644
config **.node[135].yCor 3755
config **.node[136].xCor 1463
config **.node[136].yCor 3432
config **.node[137].xCor 2595
config **.node[137].yCor 2849
config **.node[138].xCor 2581
config **.node[138].yCor 2867
config **.node[139].xCor 2524
config **.node[139].yCor 2911
config **.node[140].xCor 2570
config **.node[140].yCor 2924
config **.node[141].xCor 2676
config **.node[141].yCor 2890
config **.node[142].xCor 2666
config **.node[142].yCor 2876
config **.node[143].xCor 3735
config **.node[143].yCor 1726
config **.node[144].xCor 1637
config **.node[144].yCor 3438

vector 0 TaxiNetwork.node[116] visitedPerTimestep ETV
vector 1 TaxiNetwork.node[7] visitedPerTimestep ETV
vector 2 TaxiNetwork.node[19] visitedPerTimestep ETV
vector 3 TaxiNetwork.node[11] visitedPerTimestep ETV
vector 4 TaxiNetwork.node[6] visitedPerTimestep ETV
vector 5 TaxiNetwork.node[16] visitedPerTimestep ETV
vector 6 TaxiNetwork.node[84] visitedPerTimestep ETV
vector 7 TaxiNetwork.node[14] visitedPerTimestep ETV
vector 8 TaxiNetwork.node[89] visitedPerTimestep ETV
vector 9 TaxiNetwork.node[20] visitedPerTimestep ETV
vector 10 TaxiNetwork.node[85] visitedPerTimestep ETV
vector 11 TaxiNetwork.node[0] visitedPerTimestep ETV
vector 12 TaxiNetwork.node[93] visitedPerTimestep ETV
vector 13 TaxiNetwork.node[142] visitedPerTimestep ETV
vector 14 TaxiNetwork.node[103] visitedPerTimestep ETV
vector 15 TaxiNetwork.node[132] visitedPerTimestep ETV
vector 16 TaxiNetwork.node[60] visitedPerTimestep ETV
vector 17 TaxiNetwork.node[75] visitedPerTimestep ETV
vector 18 TaxiNetwork.node[79] visitedPerTimestep ETV
vector 19 TaxiNetwork.node[124] visitedPerTimestep ETV
vector 20 TaxiNetwork.node[99] visitedPerTimestep ETV
vector 21 TaxiNetwork.node[129] visitedPerTimestep ETV
vector 22 TaxiNetwork.node[63] visitedPerTimestep ETV
vector 23 TaxiNetwork.node[61] visitedPerTimestep ETV
vector 24 TaxiNetwork.node[62] visitedPerTimestep ETV
vector 25 TaxiNetwork.node[121] visitedPerTimestep ETV
vector 26 TaxiNetwork.node[69] visitedPerTimestep ETV
vector 27 TaxiNetwork.node[131] visitedPerTimestep ETV
vector 28 TaxiNetwork.node[80] visitedPerTimestep ETV
vector 29 TaxiNetwork.node[133] visitedPerTimestep ETV
vector 30 TaxiNetwork.node[18] visitedPerTimestep ETV
vector 31 TaxiNetwork.node[30] visitedPerTimestep ETV
vector 32 TaxiNetwork.node[83] visitedPerTimestep ETV
vector 33 TaxiNetwork.node[55] visitedPerTimestep ETV
vector 34 TaxiNetwork.node[33] visitedPerTimestep ETV
vector 35 TaxiNetwork.node[35] visitedPerTimestep ETV
vector 36 TaxiNetwork.node[39] visitedPerTimestep ETV
vector 37 TaxiNetwork.node[24] visitedPerTimestep ETV
vector 38 TaxiNetwork.node[29] visitedPerTimestep ETV
vector 39 TaxiNetwork.node[21] visitedPerTimestep ETV
vector 40 TaxiNetwork.node[37] visitedPerTimestep ETV
vector 41 TaxiNetwork.node[82] visitedPerTimestep ETV
vector 42 TaxiNetwork.node[31] visitedPerTimestep ETV
vector 43 TaxiNetwork.node[101] visitedPerTimestep ETV
vector 44 TaxiNetwork.node[10] visitedPerTimestep ETV
vector 45 TaxiNetwork.node[86] visitedPerTimestep ETV
vector 46 TaxiNetwork.node[54] visitedPerTimestep ETV
vector 47 TaxiNetwork.node[92] visitedPerTimestep ETV
vector 48 TaxiNetwork.node[1] visitedPerTimestep ETV
vector 49 TaxiNetwork.node[139] visitedPerTimestep ETV
vector 50 TaxiNetwork.node[9] visitedPerTimestep ETV
vector 51 TaxiNetwork.node[67] visitedPerTimestep ETV
vector 52 TaxiNetwork.node[118] visitedPerTimestep ETV
vector 53 TaxiNetwork.node[57] visitedPerTimestep ETV
vector 54 TaxiNetwork.node[3] visitedPerTimestep ETV
vector 55 TaxiNetwork.node[45] visitedPerTimestep ETV
vector 56 TaxiNetwork.node[137] visitedPerTimestep ETV
vector 57 TaxiNetwork.node[115] visitedPerTimestep ETV
vector 58 TaxiNetwork.node[100] visitedPerTimestep ETV
vector 59 TaxiNetwork.node[114] visitedPerTimestep ETV
vector 60 TaxiNetwork.node[5] visitedPerTimestep ETV
vector 61 TaxiNetwork.node[17] visitedPerTimestep ETV
vector 62 TaxiNetwork.node[122] visitedPerTimestep ETV
vector 63 TaxiNetwork.node[73] visitedPerTimestep ETV
vector 64 TaxiNetwork.node[78] visitedPerTimestep ETV
vector 65 TaxiNetwork.node[72] visitedPerTimestep ETV
vector 66 TaxiNetwork.node[64] visitedPerTimestep ETV
vector 67 TaxiNetwork.node[143] visitedPerTimestep ETV
vector 68 TaxiNetwork.node[77] visitedPerTimestep ETV
vector 69 TaxiNetwork.node[128] visitedPerTimestep ETV
vector 70 TaxiNetwork.node[130] visitedPerTimestep ETV
vector 71 TaxiNetwork.node[46] visitedPerTimestep ETV
vector 72 TaxiNetwork.node[4] visitedPerTimestep ETV
vector 73 TaxiNetwork.node[102] visitedPerTimestep ETV
vector 74 TaxiNetwork.node[141] visitedPerTimestep ETV
vector 75 TaxiNetwork.node[120] visitedPerTimestep ETV
vector 76 TaxiNetwork.node[8] visitedPerTimestep ETV
vector 77 TaxiNetwork.node[36] visitedPerTimestep ETV
vector 78 TaxiNetwork.node[22] visitedPerTimestep ETV
vector 79 TaxiNetwork.node[32] visitedPerTimestep ETV
vector 80 TaxiNetwork.node[140] visitedPerTimestep ETV
vector 81 TaxiNetwork.node[88] visitedPerTimestep ETV
vector 82 TaxiNetwork.node[104] visitedPerTimestep ETV
vector 83 TaxiNetwork.node[87] visitedPerTimestep ETV
vector 84 TaxiNetwork.node[13] visitedPerTimestep ETV
vector 85 TaxiNetwork.node[2] visitedPerTimestep ETV
vector 86 TaxiNetwork.node[12] visitedPerTimestep ETV
vector 87 TaxiNetwork.node[44] visitedPerTimestep ETV
vector 88 TaxiNetwork.node[53] visitedPerTimestep ETV
vector 89 TaxiNetwork.node[117] visitedPerTimestep ETV
vector 90 TaxiNetwork.node[28] visitedPerTimestep ETV
vector 91 TaxiNetwork.node[26] visitedPerTimestep ETV
vector 92 TaxiNetwork.node[34] visitedPerTimestep ETV
vector 93 TaxiNetwork.node[40] visitedPerTimestep ETV
vector 94 TaxiNetwork.node[138] visitedPerTimestep ETV
vector 95 TaxiNetwork.node[52] visitedPerTimestep ETV
vector 96 TaxiNetwork.node[90] visitedPerTimestep ETV
vector 97 TaxiNetwork.node[94] visitedPerTimestep ETV
vector 98 TaxiNetwork.node[123] visitedPerTimestep ETV
vector 99 TaxiNetwork.node[91] visitedPerTimestep ETV
vector 100 TaxiNetwork.node[27] visitedPerTimestep ETV
vector 101 TaxiNetwork.node[15] visitedPerTimestep ETV
vector 102 TaxiNetwork.node[110] visitedPerTimestep ETV
vector 103 TaxiNetwork.node[68] visitedPerTimestep ETV
vector 104 TaxiNetwork.node[95] visitedPerTimestep ETV
vector 105 TaxiNetwork.node[71] visitedPerTimestep ETV
vector 106 TaxiNetwork.node[134] visitedPerTimestep ETV
vector 107 TaxiNetwork.node[70] visitedPerTimestep ETV
vector 108 TaxiNetwork.node[106] visitedPerTimestep ETV
vector 109 TaxiNetwork.node[113] visitedPerTimestep ETV
vector 110 TaxiNetwork.node[74] visitedPerTimestep ETV
vector 111 TaxiNetwork.node[111] visitedPerTimestep ETV
vector 112 TaxiNetwork.node[59] visitedPerTimestep ETV
vector 113 TaxiNetwork.node[109] visitedPerTimestep ETV
vector 114 TaxiNetwork.node[108] visitedPerTimestep ETV
vector 115 TaxiNetwork.node[42] visitedPerTimestep ETV
vector 116 TaxiNetwork.node[43] visitedPerTimestep ETV
vector 117 TaxiNetwork.node[41] visitedPerTimestep ETV
vector 118 TaxiNetwork.node[126] visitedPerTimestep ETV
vector 119 TaxiNetwork.node[66] visitedPerTimestep ETV
vector 120 TaxiNetwork.node[65] visitedPerTimestep ETV
vector 121 TaxiNetwork.node[105] visitedPerTimestep ETV
vector 122 TaxiNetwork.node[98] visitedPerTimestep ETV
vector 123 TaxiNetwork.node[51] visitedPerTimestep ETV
vector 124 TaxiNetwork.node[47] visitedPerTimestep ETV
vector 125 TaxiNetwork.node[135] visitedPerTimestep ETV
vector 126 TaxiNetwork.node[144] visitedPerTimestep ETV
vector 127 TaxiNetwork.node[112] visitedPerTimestep ETV
vector 128 TaxiNetwork.node[119] visitedPerTimestep ETV
vector 129 TaxiNetwork.node[56] visitedPerTimestep ETV
vector 130 TaxiNetwork.node[136] visitedPerTimestep ETV
vector 131 TaxiNetwork.node[49] visitedPerTimestep ETV
vector 132 TaxiNetwork.node[48] visitedPerTimestep ETV
vector 133 TaxiNetwork.node[58] visitedPerTimestep ETV
vector 134 TaxiNetwork.node[127] visitedPerTimestep ETV
vector 135 TaxiNetwork.node[125] visitedPerTimestep ETV
vector 136 TaxiNetwork.node[81] visitedPerTimestep ETV
vector 137 TaxiNetwork.node[107] visitedPerTimestep ETV
vector 138 TaxiNetwork.node[76] visitedPerTimestep ETV
vector 139 TaxiNetwork.node[50] visitedPerTimestep ETV
vector 140 TaxiNetwork.node[97] visitedPerTimestep ETV
0	1	0	1
0	193	0	94
0	273	0	100
0	301	0	102
0	444	0	111
0	447	0	113
0	496	0	113
0	530	0	113
0	866	0	128
0	992	0	133
0	1414	0	136
0	1844	0	140
0	2398	0	142
0	2566	0	142
0	2644	0	142
0	2814	0	142
0	3048	0	144
0	3364	0	144
0	3376	0	144
0	4392	0	144
0	4468	0	144
1	2	0	2
1	40	0	30
1	86	0	62
1	257	0	100
1	268	0	100
1	279	0	100
1	759	0	128
1	881	0	128
1	884	0	128
1	925	0	133
1	965	0	133
1	1180	0	135
1	1218	0	135
1	1310	0	135
1	1428	0	136
1	1432	0	136
1	1468	0	136
1	1692	0	140
1	1748	0	140
1	1802	0	140
1	1822	0	140
1	2188	0	141
1	2232	0	141
1	2414	0	142
1	2528	0	142
1	2796	0	142
1	2816	0	142
1	2860	0	142
1	2908	0	144
1	2966	0	144
1	2978	0	144
1	2998	0	144
1	3080	0	144
1	3160	0	144
1	3244	0	144
1	3268	0	144
1	3368	0	144
1	3772	0	144
1	3796	0	144
1	4412	0	144
1	4624	0	144
1	4736	0	144
1	4996	0	144
1	5120	0	144
1	5552	0	144
2	3	0	3
2	63	0	51
2	88	0	62
2	204	0	94
2	231	0	96
2	264	0	100
2	267	0	100
2	354	0	108
2	401	0	111
2	479	0	113
2	526	0	113
2	610	0	120
2	726	0	127
2	735	0	127
2	798	0	128
2	861	0	128
2	1134	0	135
2	1220	0	135
2	1284	0	135
2	1324	0	135
2	1360	0	135
2	1710	0	140
2	1820	0	140
2	1828	0	140
2	2164	0	141
2	2476	0	142
2	2638	0	142
2	3000	0	144
2	3012	0	144
2	3104	0	144
2	3344	0	144
2	3668	0	144
2	3828	0	144
2	4248	0	144
2	4664	0	144
2	4980	0	144
3	4	0	4
3	233	0	96
3	238	0	96
3	259	0	100
3	388	0	111
3	582	0	118
3	584	0	118
3	607	0	120
3	822	0	128
3	840	0	128
3	858	0	128
3	865	0	128
3	921	0	133
3	970	0	133
3	1034	0	133
3	1176	0	135
3	1362	0	135
3	1720	0	140
3	1728	0	140
3	2088	0	141
3	2234	0	141
3	2242	0	141
3	2520	0	142
3	2650	0	142
3	3292	0	144
3	3612	0	144
3	3672	0	144
3	4504	0	144
3	5148	0	144
3	5444	0	144
3	5484	0	144
3	5600	0	144
3	5612	0	144
4	5	0	5
4	75	0	55
4	124	0	72
4	222	0	95
4	383	0	111
4	478	0	113
4	492	0	113
4	523	0	113
4	614	0	120
4	983	0	133
4	1024	0	133
4	1038	0	133
4	1382	0	135
4	1626	0	140
4	1774	0	140
4	1780	0	140
4	1810	0	140
4	1848	0	140
4	2370	0	142
4	2606	0	142
4	2700	0	142
4	2720	0	142
4	2778	0	142
4	2970	0	144
4	2988	0	144
4	3548	0	144
4	3564	0	144
4	3636	0	144
4	3744	0	144
4	4212	0	144
4	4376	0	144
4	4400	0	144
5	6	0	6
5	164	0	88
5	280	0	100
5	435	0	111
5	488	0	113
5	495	0	113
5	498	0	113
5	522	0	113
5	632	0	120
5	649	0	120
5	694	0	120
5	728	0	127
5	752	0	128
5	756	0	128
5	824	0	128
5	885	0	128
5	968	0	133
5	1046	0	133
5	1374	0	135
5	1426	0	136
5	1490	0	136
5	1824	0	140
5	1996	0	141
5	2380	0	142
5	2846	0	142
5	2886	0	143
5	2968	0	144
5	3360	0	144
5	3432	0	144
5	3596	0	144
5	3756	0	144
5	4976	0	144
5	5008	0	144
6	7	0	7
6	11	0	10
6	65	0	51
6	152	0	82
6	356	0	108
6	365	0	110
6	410	0	111
6	784	0	128
6	813	0	128
6	1336	0	135
6	1366	0	135
6	1372	0	135
6	1480	0	136
6	1486	0	136
6	1644	0	140
6	2310	0	142
6	2732	0	142
6	2776	0	142
6	2920	0	144
6	2938	0	144
6	2962	0	144
6	3276	0	144
6	3400	0	144
6	3408	0	144
6	3444	0	144
6	3452	0	144
6	3768	0	144
6	3844	0	144
6	3988	0	144
6	3996	0	144
6	4612	0	144
7	8	0	8
7	79	0	57
7	84	0	61
7	281	0	100
7	340	0	108
7	382	0	111
7	420	0	111
7	455	0	113
7	487	0	113
7	494	0	113
7	510	0	113
7	617	0	120
7	626	0	120
7	642	0	120
7	715	0	121
7	832	0	128
7	834	0	128
7	1356	0	135
7	1452	0	136
7	1684	0	140
7	1850	0	140
7	2150	0	141
7	2270	0	141
7	2364	0	142
7	2446	0	142
7	2450	0	142
7	2736	0	142
7	2838	0	142
7	3028	0	144
7	3204	0	144
7	3468	0	144
7	3552	0	144
7	3720	0	144
7	4552	0	144
7	4568	0	144
8	9	0	9
8	87	0	62
8	89	0	62
8	197	0	94
8	389	0	111
8	406	0	111
8	650	0	120
8	713	0	121
8	831	0	128
8	1368	0	135
8	1434	0	136
8	1500	0	136
8	1676	0	140
8	1758	0	140
8	1952	0	141
8	2266	0	141
8	2306	0	142
8	2312	0	142
8	2484	0	142
8	2558	0	142
8	2870	0	142
8	2874	0	142
8	2926	0	144
8	3056	0	144
8	3116	0	144
8	3176	0	144
8	3188	0	144
8	3492	0	144
8	4232	0	144
8	4596	0	144
8	4692	0	144
8	4716	0	144
9	10	0	10
9	54	0	43
9	251	0	98
9	336	0	108
9	419	0	111
9	647	0	120
9	799	0	128
9	874	0	128
9	922	0	133
9	1022	0	133
9	1066	0	133
9	1142	0	135
9	1298	0	135
9	1384	0	135
9	1494	0	136
9	1690	0	140
9	1812	0	140
9	1980	0	141
9	2318	0	142
9	2354	0	142
9	2406	0	142
9	2782	0	142
9	3088	0	144
9	3208	0	144
9	3516	0	144
9	3832	0	144
9	4420	0	144
9	4956	0	144
9	5044	0	144
9	5464	0	144
10	12	0	11
10	64	0	51
10	205	0	94
10	512	0	113
10	611	0	120
10	674	0	120
10	753	0	128
10	787	0	128
10	795	0	128
10	839	0	128
10	842	0	128
10	869	0	128
10	978	0	133
10	1110	0	134
10	1132	0	135
10	1314	0	135
10	1444	0	136
10	1638	0	140
10	1826	0	140
10	1974	0	141
10	2018	0	141
10	2082	0	141
10	2162	0	141
10	2236	0	141
10	2260	0	141
10	2454	0	142
10	2468	0	142
10	2636	0	142
10	2640	0	142
10	2774	0	142
10	2910	0	144
10	3168	0	144
10	3180	0	144
10	3816	0	144
10	4040	0	144
10	4348	0	144
10	4680	0	144
10	5084	0	144
10	5456	0	144
11	13	0	12
11	67	0	52
11	74	0	55
11	132	0	76
11	294	0	101
11	407	0	111
11	409	0	111
11	412	0	111
11	457	0	113
11	459	0	113
11	471	0	113
11	561	0	118
11	630	0	120
11	671	0	120
11	734	0	127
11	797	0	128
11	844	0	128
11	986	0	133
11	1170	0	135
11	1228	0	135
11	1630	0	140
11	1666	0	140
11	2064	0	141
11	2090	0	141
11	2422	0	142
11	2458	0	142
11	2894	0	143
11	3112	0	144
11	3156	0	144
11	3296	0	144
11	3320	0	144
11	3328	0	144
11	3500	0	144
11	3524	0	144
11	3692	0	144
12	14	0	13
12	125	0	72
12	175	0	90
12	288	0	101
12	395	0	111
12	450	0	113
12	458	0	113
12	472	0	113
12	486	0	113
12	525	0	113
12	569	0	118
12	686	0	120
12	779	0	128
12	830	0	128
12	892	0	128
12	974	0	133
12	979	0	133
12	981	0	133
12	1074	0	133
12	1200	0	135
12	1312	0	135
12	1340	0	135
12	1624	0	140
12	2050	0	141
12	2084	0	141
12	2294	0	142
12	2316	0	142
12	2386	0	142
12	2488	0	142
12	2616	0	142
12	2702	0	142
12	2794	0	142
12	3228	0	144
12	4416	0	144
12	4616	0	144
13	15	0	14
13	68	0	52
13	151	0	82
13	426	0	111
13	431	0	111
13	436	0	111
13	439	0	111
13	456	0	113
13	574	0	118
13	576	0	118
13	658	0	120
13	684	0	120
13	733	0	127
13	785	0	128
13	873	0	128
13	1098	0	134
13	1140	0	135
13	1146	0	135
13	1216	0	135
13	1300	0	135
13	1498	0	136
13	1650	0	140
13	1714	0	140
13	1938	0	141
13	2094	0	141
13	2448	0	142
13	2524	0	142
13	2740	0	142
13	2746	0	142
13	2916	0	144
13	3300	0	144
13	3540	0	144
13	3812	0	144
13	4312	0	144
13	4516	0	144
13	4532	0	144
13	4576	0	144
14	16	0	15
14	39	0	30
14	195	0	94
14	408	0	111
14	414	0	111
14	573	0	118
14	618	0	120
14	620	0	120
14	672	0	120
14	698	0	120
14	835	0	128
14	849	0	128
14	926	0	133
14	960	0	133
14	1182	0	135
14	1330	0	135
14	1472	0	136
14	1534	0	136
14	1652	0	140
14	1726	0	140
14	1746	0	140
14	1932	0	141
14	2394	0	142
14	2440	0	142
14	2564	0	142
14	2788	0	142
14	2964	0	144
14	3944	0	144
14	3984	0	144
14	4388	0	144
14	4636	0	144
14	4648	0	144
14	4696	0	144
14	4744	0	144
14	4752	0	144
14	4960	0	144
14	5096	0	144
14	5108	0	144
14	5556	0	144
15	17	0	16
15	100	0	68
15	304	0	103
15	325	0	107
15	706	0	121
15	855	0	128
15	1536	0	136
15	1542	0	136
15	1606	0	140
15	4948	0	144
15	4968	0	144
15	5104	0	144
16	18	0	17
16	104	0	69
16	307	0	103
16	311	0	103
16	588	0	119
16	708	0	121
16	931	0	133
16	938	0	133
16	954	0	133
16	1552	0	137
16	1572	0	137
16	1578	0	137
16	1896	0	140
16	4172	0	144
16	4904	0	144
16	5236	0	144
16	5288	0	144
16	5340	0	144
17	19	0	18
17	308	0	103
17	316	0	103
17	932	0	133
17	935	0	133
17	946	0	133
17	953	0	133
17	5224	0	144
17	5280	0	144
17	5324	0	144
18	20	0	19
18	22	0	20
18	28	0	25
18	32	0	28
18	36	0	29
18	111	0	69
18	310	0	103
18	1554	0	137
18	1870	0	140
18	3960	0	144
18	4796	0	144
18	4836	0	144
18	4868	0	144
18	4896	0	144
18	5244	0	144
18	5344	0	144
18	5388	0	144
18	5412	0	144
19	21	0	20
19	34	0	29
19	1878	0	140
19	1882	0	140
19	3976	0	144
19	4804	0	144
19	5380	0	144
20	23	0	21
20	35	0	29
20	38	0	30
20	115	0	69
20	118	0	70
20	305	0	103
20	594	0	119
20	699	0	120
20	821	0	128
20	856	0	128
20	929	0	133
20	958	0	133
20	1538	0	136
20	1902	0	140
20	1924	0	141
20	4148	0	144
20	4864	0	144
20	5212	0	144
20	5316	0	144
20	5364	0	144
20	5440	0	144
21	24	0	22
21	303	0	103
21	312	0	103
21	850	0	128
21	927	0	133
21	940	0	133
21	1562	0	137
21	1576	0	137
21	1604	0	140
21	1658	0	140
21	1926	0	141
21	4792	0	144
21	4888	0	144
21	5368	0	144
22	25	0	23
22	116	0	69
22	119	0	70
22	701	0	120
22	709	0	121
22	930	0	133
22	1662	0	140
22	4852	0	144
22	4912	0	144
22	5216	0	144
22	5424	0	144
23	26	0	24
23	108	0	69
23	199	0	94
23	703	0	121
23	949	0	133
23	1574	0	137
23	1740	0	140
23	1922	0	141
23	3968	0	144
23	5292	0	144
23	5304	0	144
23	5568	0	144
24	27	0	25
24	98	0	68
24	101	0	68
24	314	0	103
24	317	0	103
24	591	0	119
24	853	0	128
24	1582	0	137
24	1858	0	140
24	1892	0	140
24	1912	0	141
24	3868	0	144
24	3896	0	144
24	4840	0	144
24	4860	0	144
24	5284	0	144
25	29	0	26
25	92	0	63
25	323	0	107
25	939	0	133
25	957	0	133
25	1612	0	140
25	1874	0	140
25	3856	0	144
25	4188	0	144
25	4900	0	144
25	4916	0	144
25	5300	0	144
25	5408	0	144
26	30	0	27
26	114	0	69
26	328	0	107
26	586	0	118
26	599	0	119
26	700	0	120
26	1566	0	137
26	1660	0	140
26	1904	0	140
26	1918	0	141
26	3888	0	144
26	4872	0	144
26	4944	0	144
26	5264	0	144
26	5372	0	144
26	5416	0	144
27	31	0	28
27	105	0	69
27	107	0	69
27	306	0	103
27	326	0	107
27	707	0	121
27	857	0	128
27	1556	0	137
27	1744	0	140
27	1860	0	140
27	1890	0	140
27	1928	0	141
27	2174	0	141
27	2514	0	142
27	3852	0	144
27	4184	0	144
27	4192	0	144
27	5200	0	144
28	33	0	29
28	106	0	69
28	321	0	106
28	327	0	107
28	705	0	121
28	942	0	133
28	944	0	133
28	1548	0	137
28	1568	0	137
28	1884	0	140
28	2516	0	142
28	4152	0	144
28	4800	0	144
28	4880	0	144
28	5248	0	144
28	5352	0	144
28	5376	0	144
29	37	0	30
29	109	0	69
29	324	0	107
29	601	0	119
29	851	0	128
29	937	0	133
29	956	0	133
29	1586	0	137
29	1862	0	140
29	3936	0	144
29	4140	0	144
29	4164	0	144
29	5312	0	144
29	5328	0	144
30	41	0	31
30	160	0	87
30	218	0	95
30	413	0	111
30	608	0	120
30	732	0	127
30	767	0	128
30	859	0	128
30	1226	0	135
30	1286	0	135
30	1394	0	135
30	1622	0	140
30	1706	0	140
30	1764	0	140
30	1790	0	140
30	2006	0	141
30	2098	0	141
30	2102	0	141
30	2244	0	141
30	2292	0	142
30	2542	0	142
30	2562	0	142
30	2648	0	142
30	2772	0	142
30	2840	0	142
30	2854	0	142
30	2864	0	142
30	2972	0	144
30	3412	0	144
30	4480	0	144
30	4492	0	144
30	5032	0	144
31	42	0	32
31	235	0	96
31	252	0	98
31	266	0	100
31	422	0	111
31	579	0	118
31	662	0	120
31	693	0	120
31	741	0	127
31	750	0	128
31	760	0	128
31	814	0	128
31	826	0	128
31	889	0	128
31	1086	0	134
31	1246	0	135
31	1370	0	135
31	1456	0	136
31	1986	0	141
31	2502	0	142
31	2536	0	142
31	2848	0	142
31	2912	0	144
31	2994	0	144
31	3508	0	144
31	3520	0	144
31	3628	0	144
31	4032	0	144
31	4252	0	144
31	4304	0	144
31	4448	0	144
31	4580	0	144
31	5028	0	144
31	5180	0	144
32	43	0	33
32	176	0	90
32	180	0	92
32	212	0	94
32	219	0	95
32	429	0	111
32	508	0	113
32	556	0	118
32	559	0	118
32	609	0	120
32	771	0	128
32	806	0	128
32	1122	0	135
32	1786	0	140
32	1814	0	140
32	1944	0	141
32	2036	0	141
32	2278	0	141
32	2282	0	142
32	2356	0	142
32	2374	0	142
32	2614	0	142
32	2620	0	142
32	2768	0	142
32	2956	0	144
32	3728	0	144
32	4068	0	144
32	4080	0	144
32	4440	0	144
33	44	0	34
33	76	0	55
33	167	0	88
33	214	0	94
33	228	0	96
33	724	0	127
33	736	0	127
33	742	0	127
33	901	0	130
33	982	0	133
33	2004	0	141
33	2216	0	141
33	2248	0	141
33	2462	0	142
33	2770	0	142
33	2830	0	142
33	2844	0	142
33	2866	0	142
33	3420	0	144
33	3576	0	144
33	3748	0	144
33	4656	0	144
33	5592	0	144
34	45	0	35
34	146	0	80
34	220	0	95
34	428	0	111
34	513	0	113
34	519	0	113
34	646	0	120
34	890	0	128
34	1016	0	133
34	1210	0	135
34	1522	0	136
34	1818	0	140
34	2030	0	141
34	2158	0	141
34	2296	0	142
34	2470	0	142
34	2492	0	142
34	2504	0	142
34	2634	0	142
34	2900	0	144
34	3424	0	144
34	4224	0	144
34	4488	0	144
34	4584	0	144
35	46	0	36
35	210	0	94
35	213	0	94
35	285	0	100
35	1160	0	135
35	1264	0	135
35	2360	0	142
35	2376	0	142
35	2464	0	142
35	3656	0	144
35	4060	0	144
35	4072	0	144
35	4088	0	144
36	47	0	37
36	182	0	92
36	291	0	101
36	377	0	111
36	484	0	113
36	772	0	128
36	1126	0	135
36	1254	0	135
36	1970	0	141
36	2034	0	141
36	2038	0	141
36	2120	0	141
36	2202	0	141
36	2342	0	142
36	2346	0	142
36	4320	0	144
37	48	0	38
37	144	0	80
37	211	0	94
37	507	0	113
37	1270	0	135
37	2204	0	141
37	2950	0	144
37	2954	0	144
37	4264	0	144
38	49	0	39
38	186	0	93
38	189	0	93
38	375	0	111
38	558	0	118
38	803	0	128
38	1004	0	133
38	1194	0	135
38	1350	0	135
38	2206	0	141
38	2280	0	142
38	2348	0	142
38	2630	0	142
38	2714	0	142
38	4104	0	144
38	4272	0	144
38	4288	0	144
39	50	0	40
39	1008	0	133
39	1196	0	135
39	2044	0	141
39	2952	0	144
40	51	0	41
40	141	0	79
40	145	0	80
40	209	0	94
40	287	0	101
40	380	0	111
40	738	0	127
40	891	0	128
40	1018	0	133
40	1342	0	135
40	1834	0	140
40	2276	0	141
40	2904	0	144
40	4292	0	144
41	52	0	42
41	398	0	111
41	765	0	128
41	1156	0	135
41	1460	0	136
41	2302	0	142
41	2948	0	144
41	3732	0	144
41	4056	0	144
41	4092	0	144
41	4268	0	144
41	5052	0	144
42	53	0	43
42	140	0	79
42	352	0	108
42	483	0	113
42	739	0	127
42	1020	0	133
42	1256	0	135
42	1830	0	140
42	2028	0	141
42	2118	0	141
42	2474	0	142
42	2632	0	142
42	2670	0	142
42	4280	0	144
42	4300	0	144
42	5020	0	144
43	55	0	44
43	166	0	88
43	208	0	94
43	229	0	96
43	378	0	111
43	430	0	111
43	625	0	120
43	740	0	127
43	755	0	128
43	984	0	133
43	1060	0	133
43	1096	0	134
43	1208	0	135
43	1276	0	135
43	1348	0	135
43	1462	0	136
43	1762	0	140
43	1942	0	141
43	1972	0	141
43	1984	0	141
43	2114	0	141
43	2136	0	141
43	2198	0	141
43	2212	0	141
43	2560	0	142
43	2826	0	142
43	3004	0	144
43	3212	0	144
43	3640	0	144
43	3660	0	144
43	4296	0	144
43	5024	0	144
44	56	0	45
44	148	0	81
44	196	0	94
44	258	0	100
44	474	0	113
44	521	0	113
44	571	0	118
44	615	0	120
44	634	0	120
44	655	0	120
44	670	0	120
44	688	0	120
44	769	0	128
44	833	0	128
44	1000	0	133
44	1148	0	135
44	1174	0	135
44	1292	0	135
44	1302	0	135
44	1448	0	136
44	1948	0	141
44	2112	0	141
44	2392	0	142
44	2534	0	142
44	2652	0	142
44	3504	0	144
44	3616	0	144
44	3800	0	144
44	4048	0	144
44	4408	0	144
44	4640	0	144
44	4720	0	144
44	5092	0	144
44	5112	0	144
45	57	0	46
45	226	0	96
45	339	0	108
45	394	0	111
45	442	0	111
45	627	0	120
45	786	0	128
45	812	0	128
45	860	0	128
45	1282	0	135
45	1648	0	140
45	1712	0	140
45	1750	0	140
45	1804	0	140
45	2058	0	141
45	2170	0	141
45	2332	0	142
45	2758	0	142
45	2996	0	144
45	3096	0	144
45	3260	0	144
45	3416	0	144
45	3580	0	144
45	5076	0	144
45	5460	0	144
45	5584	0	144
45	5608	0	144
46	58	0	47
46	137	0	77
46	342	0	108
46	397	0	111
46	399	0	111
46	509	0	113
46	916	0	133
46	1100	0	134
46	1250	0	135
46	1492	0	136
46	1784	0	140
46	1956	0	141
46	2372	0	142
46	2676	0	142
46	2756	0	142
46	2898	0	143
46	2946	0	144
46	3232	0	144
46	3700	0	144
46	5040	0	144
46	5048	0	144
46	5056	0	144
46	5588	0	144
47	59	0	48
47	73	0	55
47	391	0	111
47	418	0	111
47	482	0	113
47	633	0	120
47	725	0	127
47	754	0	128
47	774	0	128
47	778	0	128
47	802	0	128
47	805	0	128
47	1058	0	133
47	1072	0	133
47	1212	0	135
47	1354	0	135
47	1442	0	136
47	1518	0	136
47	1530	0	136
47	1798	0	140
47	1832	0	140
47	2148	0	141
47	2362	0	142
47	2460	0	142
47	2744	0	142
47	2766	0	142
47	4216	0	144
47	4436	0	144
47	4548	0	144
47	5168	0	144
48	60	0	49
48	130	0	76
48	153	0	82
48	162	0	88
48	206	0	94
48	221	0	95
48	277	0	100
48	334	0	108
48	663	0	120
48	711	0	121
48	837	0	128
48	882	0	128
48	1078	0	133
48	1118	0	134
48	1178	0	135
48	1232	0	135
48	1278	0	135
48	1504	0	136
48	1616	0	140
48	1646	0	140
48	1838	0	140
48	1982	0	141
48	1988	0	141
48	2076	0	141
48	2106	0	141
48	2210	0	141
48	2288	0	142
48	2416	0	142
48	2750	0	142
48	2804	0	142
48	3100	0	144
48	3164	0	144
48	3284	0	144
48	3472	0	144
48	3584	0	144
48	3740	0	144
48	5492	0	144
49	61	0	50
49	194	0	94
49	274	0	100
49	300	0	102
49	349	0	108
49	425	0	111
49	490	0	113
49	517	0	113
49	528	0	113
49	612	0	120
49	631	0	120
49	664	0	120
49	667	0	120
49	682	0	120
49	747	0	128
49	762	0	128
49	817	0	128
49	964	0	133
49	967	0	133
49	1062	0	133
49	1290	0	135
49	1378	0	135
49	1526	0	136
49	2262	0	141
49	2336	0	142
49	2352	0	142
49	2412	0	142
49	2530	0	142
49	2548	0	142
49	2914	0	144
49	3440	0	144
49	3604	0	144
49	4484	0	144
49	4988	0	144
50	62	0	51
50	72	0	55
50	242	0	97
50	261	0	100
50	283	0	100
50	568	0	118
50	635	0	120
50	681	0	120
50	792	0	128
50	816	0	128
50	868	0	128
50	962	0	133
50	975	0	133
50	1424	0	136
50	1520	0	136
50	1618	0	140
50	1634	0	140
50	1670	0	140
50	1730	0	140
50	1752	0	140
50	1998	0	141
50	2020	0	141
50	2272	0	141
50	2408	0	142
50	2522	0	142
50	2608	0	142
50	2704	0	142
50	2760	0	142
50	2884	0	143
50	3020	0	144
50	3172	0	144
50	3476	0	144
50	3556	0	144
50	4228	0	144
50	4328	0	144
50	4500	0	144
50	4740	0	144
51	66	0	52
51	198	0	94
51	200	0	94
51	1664	0	140
51	1732	0	140
51	2482	0	142
51	2508	0	142
51	3848	0	144
52	69	0	53
52	346	0	108
52	362	0	110
52	501	0	113
52	563	0	118
52	878	0	128
52	1026	0	133
52	1030	0	133
52	1204	0	135
52	1430	0	136
52	1936	0	141
52	2230	0	141
52	2366	0	142
52	2396	0	142
52	2738	0	142
52	3336	0	144
52	4360	0	144
52	4384	0	144
52	4564	0	144
52	4756	0	144
52	5504	0	144
53	70	0	54
53	347	0	108
53	746	0	128
53	989	0	133
53	1028	0	133
53	1846	0	140
53	2568	0	142
53	3044	0	144
53	3252	0	144
53	3388	0	144
53	4380	0	144
53	4456	0	144
54	71	0	55
54	131	0	76
54	157	0	85
54	244	0	97
54	271	0	100
54	605	0	120
54	623	0	120
54	676	0	120
54	687	0	120
54	692	0	120
54	727	0	127
54	758	0	128
54	801	0	128
54	862	0	128
54	872	0	128
54	893	0	128
54	900	0	130
54	971	0	133
54	995	0	133
54	1116	0	134
54	1186	0	135
54	1388	0	135
54	1416	0	136
54	1482	0	136
54	1696	0	140
54	1772	0	140
54	1990	0	141
54	2544	0	142
54	2556	0	142
54	2604	0	142
54	2642	0	142
54	2806	0	142
54	2818	0	142
54	2936	0	144
54	3060	0	144
54	3184	0	144
54	3248	0	144
54	3588	0	144
54	3684	0	144
54	4044	0	144
54	4364	0	144
54	4432	0	144
54	4608	0	144
54	4780	0	144
54	5036	0	144
54	5128	0	144
54	5448	0	144
54	5500	0	144
55	77	0	56
55	250	0	98
55	270	0	100
55	289	0	101
55	355	0	108
55	367	0	110
55	405	0	111
55	434	0	111
55	462	0	113
55	481	0	113
55	535	0	113
55	562	0	118
55	638	0	120
55	641	0	120
55	731	0	127
55	751	0	128
55	761	0	128
55	966	0	133
55	1114	0	134
55	1642	0	140
55	1680	0	140
55	1756	0	140
55	1800	0	140
55	1842	0	140
55	1966	0	141
55	2010	0	141
55	2228	0	141
55	2290	0	142
55	2400	0	142
55	2496	0	142
55	2792	0	142
55	2892	0	143
55	2940	0	144
55	2990	0	144
55	3488	0	144
55	3992	0	144
55	4496	0	144
55	4512	0	144
55	4632	0	144
55	4760	0	144
55	5596	0	144
56	78	0	57
56	90	0	62
56	136	0	77
56	172	0	90
56	192	0	94
56	224	0	96
56	358	0	108
56	417	0	111
56	437	0	111
56	580	0	118
56	624	0	120
56	669	0	120
56	675	0	120
56	696	0	120
56	768	0	128
56	793	0	128
56	883	0	128
56	919	0	133
56	973	0	133
56	980	0	133
56	1206	0	135
56	1294	0	135
56	1364	0	135
56	1470	0	136
56	1532	0	136
56	1688	0	140
56	1702	0	140
56	1940	0	141
56	2096	0	141
56	2268	0	141
56	2314	0	142
56	2626	0	142
56	3148	0	144
56	3304	0	144
56	3572	0	144
56	3764	0	144
56	4244	0	144
56	4424	0	144
56	4688	0	144
56	4700	0	144
56	4772	0	144
56	5164	0	144
57	80	0	58
57	344	0	108
57	359	0	108
57	438	0	111
57	613	0	120
57	848	0	128
57	880	0	128
57	998	0	133
57	1040	0	133
57	1766	0	140
57	2140	0	141
57	2546	0	142
57	2646	0	142
57	3032	0	144
57	3592	0	144
57	3716	0	144
57	5124	0	144
57	5476	0	144
58	81	0	59
58	202	0	94
58	269	0	100
58	415	0	111
58	567	0	118
58	697	0	120
58	796	0	128
58	809	0	128
58	820	0	128
58	845	0	128
58	987	0	133
58	994	0	133
58	999	0	133
58	1224	0	135
58	1960	0	141
58	2074	0	141
58	2444	0	142
58	2784	0	142
58	2800	0	142
58	2872	0	142
58	2922	0	144
58	3404	0	144
58	3512	0	144
58	3544	0	144
58	4116	0	144
58	4128	0	144
58	4200	0	144
58	4336	0	144
58	4356	0	144
58	4712	0	144
58	4972	0	144
58	5088	0	144
58	5204	0	144
58	5508	0	144
59	82	0	60
59	272	0	100
59	622	0	120
59	1408	0	136
59	2252	0	141
59	3384	0	144
59	4784	0	144
60	83	0	61
60	171	0	90
60	278	0	100
60	295	0	101
60	341	0	108
60	392	0	111
60	423	0	111
60	448	0	113
60	473	0	113
60	480	0	113
60	531	0	113
60	533	0	113
60	621	0	120
60	651	0	120
60	877	0	128
60	895	0	128
60	1234	0	135
60	1320	0	135
60	1794	0	140
60	1978	0	141
60	2092	0	141
60	2722	0	142
60	2802	0	142
60	3140	0	144
60	3256	0	144
60	3280	0	144
60	3804	0	144
60	5172	0	144
61	85	0	62
61	174	0	90
61	262	0	100
61	337	0	108
61	451	0	113
61	502	0	113
61	511	0	113
61	515	0	113
61	581	0	118
61	657	0	120
61	678	0	120
61	827	0	128
61	875	0	128
61	1052	0	133
61	1248	0	135
61	1454	0	136
61	2078	0	141
61	2144	0	141
61	2256	0	141
61	2664	0	142
61	2726	0	142
61	2808	0	142
61	2820	0	142
61	2834	0	142
61	2944	0	144
61	3136	0	144
61	3340	0	144
61	3456	0	144
61	3480	0	144
61	3600	0	144
61	3752	0	144
61	4524	0	144
61	4652	0	144
61	4660	0	144
61	4764	0	144
61	5116	0	144
61	5512	0	144
61	5544	0	144
62	91	0	63
62	122	0	71
62	203	0	94
62	421	0	111
62	460	0	113
62	603	0	120
62	619	0	120
62	673	0	120
62	1044	0	133
62	1112	0	134
62	1332	0	135
62	1438	0	136
62	1446	0	136
62	1614	0	140
62	1628	0	140
62	1722	0	140
62	2172	0	141
62	3192	0	144
62	3272	0	144
62	4952	0	144
62	5488	0	144
63	93	0	64
63	110	0	69
63	596	0	119
63	1864	0	140
63	1906	0	140
63	1920	0	141
63	3908	0	144
63	3916	0	144
63	3928	0	144
63	4832	0	144
63	4940	0	144
63	5240	0	144
63	5260	0	144
63	5272	0	144
64	94	0	65
64	102	0	68
64	590	0	119
64	947	0	133
64	3872	0	144
64	3904	0	144
64	3920	0	144
64	4820	0	144
64	5336	0	144
65	95	0	66
65	112	0	69
65	309	0	103
65	948	0	133
65	952	0	133
65	3880	0	144
65	3924	0	144
65	4160	0	144
66	96	0	67
66	99	0	68
66	852	0	128
66	854	0	128
66	1588	0	137
66	1610	0	140
66	3860	0	144
66	4144	0	144
66	4168	0	144
66	5220	0	144
66	5392	0	144
67	97	0	68
67	113	0	69
67	597	0	119
67	933	0	133
67	951	0	133
67	1734	0	140
67	1894	0	140
67	1916	0	141
67	3900	0	144
67	4176	0	144
67	5276	0	144
67	5396	0	144
68	103	0	69
68	315	0	103
68	589	0	119
68	1908	0	140
68	3876	0	144
68	4824	0	144
68	4932	0	144
68	5232	0	144
68	5332	0	144
68	5400	0	144
69	117	0	70
69	121	0	71
69	313	0	103
69	329	0	107
69	592	0	119
69	959	0	133
69	1560	0	137
69	1564	0	137
69	1584	0	137
69	1608	0	140
69	1724	0	140
69	1742	0	140
69	1888	0	140
69	1898	0	140
69	4132	0	144
69	4964	0	144
69	5576	0	144
70	120	0	71
70	704	0	121
70	1654	0	140
70	2518	0	142
70	4196	0	144
70	4876	0	144
70	5360	0	144
71	123	0	72
71	135	0	77
71	173	0	90
71	216	0	94
71	427	0	111
71	604	0	120
71	629	0	120
71	712	0	121
71	780	0	128
71	863	0	128
71	1036	0	133
71	1322	0	135
71	1474	0	136
71	1478	0	136
71	1620	0	140
71	2054	0	141
71	2108	0	141
71	2404	0	142
71	2434	0	142
71	2456	0	142
71	2494	0	142
71	2506	0	142
71	2526	0	142
71	2798	0	142
71	2934	0	144
71	3024	0	144
71	3436	0	144
71	4644	0	144
71	5080	0	144
72	126	0	73
72	225	0	96
72	357	0	108
72	416	0	111
72	644	0	120
72	666	0	120
72	690	0	120
72	808	0	128
72	888	0	128
72	996	0	133
72	1056	0	133
72	1150	0	135
72	1280	0	135
72	1318	0	135
72	1326	0	135
72	1334	0	135
72	1976	0	141
72	2126	0	141
72	2382	0	142
72	2480	0	142
72	2500	0	142
72	2858	0	142
72	2976	0	144
72	3820	0	144
72	4036	0	144
72	4332	0	144
72	4684	0	144
72	5192	0	144
73	127	0	74
73	149	0	81
73	185	0	93
73	275	0	100
73	292	0	101
73	338	0	108
73	350	0	108
73	370	0	110
73	411	0	111
73	532	0	113
73	555	0	118
73	637	0	120
73	665	0	120
73	689	0	120
73	829	0	128
73	963	0	133
73	985	0	133
73	1088	0	134
73	1346	0	135
73	1484	0	136
73	1632	0	140
73	1678	0	140
73	1788	0	140
73	1968	0	141
73	2056	0	141
73	2104	0	141
73	2132	0	141
73	2194	0	141
73	2200	0	141
73	2208	0	141
73	2300	0	142
73	2320	0	142
73	2324	0	142
73	2328	0	142
73	2426	0	142
73	2628	0	142
73	2710	0	142
73	2762	0	142
73	2960	0	144
73	3008	0	144
73	3108	0	144
73	3152	0	144
73	4316	0	144
73	4776	0	144
73	5064	0	144
74	128	0	75
74	232	0	96
74	234	0	96
74	239	0	96
74	343	0	108
74	363	0	110
74	384	0	111
74	453	0	113
74	491	0	113
74	572	0	118
74	639	0	120
74	749	0	128
74	777	0	128
74	976	0	133
74	1042	0	133
74	1166	0	135
74	1244	0	135
74	1304	0	135
74	1376	0	135
74	1668	0	140
74	1796	0	140
74	2070	0	141
74	2086	0	141
74	2258	0	141
74	2674	0	142
74	2868	0	142
74	3448	0	144
74	4404	0	144
74	4620	0	144
74	5068	0	144
75	129	0	76
75	133	0	76
75	404	0	111
75	564	0	118
75	575	0	118
75	606	0	120
75	677	0	120
75	781	0	128
75	841	0	128
75	918	0	133
75	1136	0	135
75	1242	0	135
75	1380	0	135
75	1392	0	135
75	1770	0	140
75	1954	0	141
75	1962	0	141
75	2130	0	141
75	2308	0	142
75	2334	0	142
75	2418	0	142
75	2570	0	142
75	2656	0	142
75	2718	0	142
75	2812	0	142
75	2828	0	142
75	3240	0	144
75	3396	0	144
75	4012	0	144
75	4340	0	144
75	4452	0	144
75	4676	0	144
76	134	0	77
76	263	0	100
76	364	0	110
76	368	0	110
76	440	0	111
76	654	0	120
76	679	0	120
76	757	0	128
76	969	0	133
76	1054	0	133
76	1202	0	135
76	1436	0	136
76	1440	0	136
76	1506	0	136
76	1934	0	141
76	2052	0	141
76	2146	0	141
76	2238	0	141
76	2452	0	142
76	2724	0	142
76	2790	0	142
76	2852	0	142
76	3132	0	144
76	3144	0	144
76	3352	0	144
76	3688	0	144
76	4724	0	144
76	5140	0	144
76	5480	0	144
77	138	0	78
77	181	0	92
77	183	0	92
77	376	0	111
77	748	0	128
77	763	0	128
77	766	0	128
77	1092	0	134
77	1524	0	136
77	2192	0	141
77	2338	0	142
77	2358	0	142
77	2490	0	142
77	2540	0	142
77	2668	0	142
77	4064	0	144
77	5060	0	144
78	139	0	79
78	143	0	80
78	177	0	90
78	1014	0	133
78	1192	0	135
78	1274	0	135
78	2042	0	141
78	2472	0	142
78	2612	0	142
78	3652	0	144
79	142	0	80
79	187	0	93
79	255	0	99
79	284	0	100
79	514	0	113
79	577	0	118
79	685	0	120
79	773	0	128
79	828	0	128
79	1002	0	133
79	1068	0	133
79	1076	0	133
79	1128	0	135
79	1162	0	135
79	1198	0	135
79	1344	0	135
79	1352	0	135
79	1420	0	136
79	2264	0	141
79	2344	0	142
79	2350	0	142
79	2610	0	142
79	2660	0	142
79	2672	0	142
79	2824	0	142
79	3536	0	144
79	4236	0	144
79	4284	0	144
79	4324	0	144
80	147	0	81
80	227	0	96
80	237	0	96
80	245	0	97
80	298	0	102
80	385	0	111
80	499	0	113
80	518	0	113
80	659	0	120
80	789	0	128
80	791	0	128
80	819	0	128
80	887	0	128
80	1048	0	133
80	1108	0	134
80	1144	0	135
80	1214	0	135
80	1510	0	136
80	1958	0	141
80	2066	0	141
80	2190	0	141
80	2330	0	142
80	2410	0	142
80	2538	0	142
80	2706	0	142
80	2752	0	142
80	2810	0	142
80	2932	0	144
80	3120	0	144
80	3696	0	144
80	4528	0	144
80	4704	0	144
80	5000	0	144
80	5184	0	144
81	150	0	82
81	169	0	89
81	207	0	94
81	215	0	94
81	345	0	108
81	402	0	111
81	443	0	111
81	470	0	113
81	566	0	118
81	716	0	121
81	775	0	128
81	783	0	128
81	810	0	128
81	843	0	128
81	915	0	133
81	1032	0	133
81	1064	0	133
81	1168	0	135
81	1358	0	135
81	1716	0	140
81	1776	0	140
81	2138	0	141
81	2168	0	141
81	2214	0	141
81	2832	0	142
81	3076	0	144
81	3680	0	144
81	3780	0	144
81	3792	0	144
81	4008	0	144
81	5468	0	144
82	154	0	83
82	163	0	88
82	165	0	88
82	191	0	94
82	353	0	108
82	396	0	111
82	464	0	113
82	504	0	113
82	560	0	118
82	636	0	120
82	648	0	120
82	782	0	128
82	804	0	128
82	886	0	128
82	923	0	133
82	1262	0	135
82	1390	0	135
82	1458	0	136
82	1836	0	140
82	1946	0	141
82	1964	0	141
82	2008	0	141
82	2022	0	141
82	2048	0	141
82	2286	0	142
82	2378	0	142
82	2432	0	142
82	2666	0	142
82	2716	0	142
82	2728	0	142
82	2734	0	142
82	2780	0	142
82	2842	0	142
82	2906	0	144
82	3316	0	144
82	3620	0	144
82	3632	0	144
82	4108	0	144
82	4256	0	144
83	155	0	84
83	241	0	97
83	297	0	102
83	372	0	111
83	536	0	113
83	640	0	120
83	661	0	120
83	894	0	128
83	1080	0	133
83	1466	0	136
83	1502	0	136
83	1808	0	140
83	2152	0	141
83	2388	0	142
83	2420	0	142
83	2428	0	142
83	2856	0	142
83	2882	0	143
83	2888	0	143
83	3264	0	144
83	3348	0	144
83	3624	0	144
83	3824	0	144
83	4004	0	144
83	4344	0	144
83	4592	0	144
83	4604	0	144
83	5012	0	144
83	5176	0	144
83	5452	0	144
83	5516	0	144
84	156	0	85
84	246	0	97
84	276	0	100
84	390	0	111
84	400	0	111
84	493	0	113
84	529	0	113
84	680	0	120
84	815	0	128
84	867	0	128
84	920	0	133
84	1172	0	135
84	1308	0	135
84	1476	0	136
84	1514	0	136
84	1636	0	140
84	1782	0	140
84	2014	0	141
84	2166	0	141
84	2178	0	141
84	2368	0	142
84	2552	0	142
84	2980	0	144
84	3036	0	144
84	3052	0	144
84	3196	0	144
84	3236	0	144
84	3288	0	144
84	3484	0	144
84	3760	0	144
84	4124	0	144
84	4560	0	144
84	4668	0	144
84	4984	0	144
85	158	0	86
85	236	0	96
85	254	0	99
85	373	0	111
85	476	0	113
85	565	0	118
85	825	0	128
85	836	0	128
85	1152	0	135
85	1418	0	136
85	1422	0	136
85	1496	0	136
85	1718	0	140
85	1792	0	140
85	2024	0	141
85	2080	0	141
85	2918	0	144
85	3128	0	144
85	3324	0	144
85	3428	0	144
85	4352	0	144
85	4672	0	144
86	159	0	87
86	201	0	94
86	452	0	113
86	469	0	113
86	800	0	128
86	1240	0	135
86	1306	0	135
86	1316	0	135
86	1328	0	135
86	1528	0	136
86	1672	0	140
86	1704	0	140
86	1708	0	140
86	2016	0	141
86	2060	0	141
86	2100	0	141
86	2182	0	141
86	2326	0	142
86	2550	0	142
86	2974	0	144
86	3092	0	144
86	3220	0	144
86	3528	0	144
86	3560	0	144
86	4732	0	144
87	161	0	88
87	332	0	108
87	387	0	111
87	461	0	113
87	466	0	113
87	477	0	113
87	876	0	128
87	879	0	128
87	1184	0	135
87	1338	0	135
87	1640	0	140
87	1806	0	140
87	2176	0	141
87	2436	0	142
87	2532	0	142
87	2924	0	144
87	2982	0	144
87	2986	0	144
87	3016	0	144
87	3332	0	144
87	4476	0	144
87	4708	0	144
87	5072	0	144
87	5152	0	144
87	5524	0	144
87	5580	0	144
87	5616	0	145
88	168	0	89
88	247	0	97
88	489	0	113
88	503	0	113
88	823	0	128
88	1396	0	135
88	1686	0	140
88	2142	0	141
88	2186	0	141
88	2554	0	142
88	2600	0	142
88	3200	0	144
88	3380	0	144
88	3676	0	144
88	4020	0	144
88	4428	0	144
88	4472	0	144
88	4540	0	144
88	5528	0	144
88	5540	0	144
89	170	0	90
89	386	0	111
89	403	0	111
89	497	0	113
89	583	0	118
89	643	0	120
89	683	0	120
89	691	0	120
89	790	0	128
89	1238	0	135
89	2184	0	141
89	2254	0	141
89	3068	0	144
89	3372	0	144
89	3464	0	144
89	3708	0	144
89	4372	0	144
89	4520	0	144
89	4628	0	144
90	178	0	91
90	1006	0	133
90	1010	0	133
90	1272	0	135
91	179	0	92
91	764	0	128
91	1012	0	133
91	1124	0	135
91	1268	0	135
91	4100	0	144
92	184	0	93
92	188	0	93
92	379	0	111
92	505	0	113
92	557	0	118
92	1094	0	134
92	1260	0	135
92	2032	0	141
92	2040	0	141
92	2298	0	142
92	2902	0	144
92	4084	0	144
92	4260	0	144
93	190	0	94
93	485	0	113
93	506	0	113
93	1090	0	134
93	1190	0	135
93	2046	0	141
93	2122	0	141
93	2196	0	141
93	2618	0	142
93	2764	0	142
93	3648	0	144
93	4220	0	144
94	217	0	95
94	230	0	96
94	260	0	100
94	265	0	100
94	393	0	111
94	432	0	111
94	570	0	118
94	729	0	127
94	811	0	128
94	961	0	133
94	997	0	133
94	1386	0	135
94	1994	0	141
94	2062	0	141
94	2486	0	142
94	2862	0	142
94	3312	0	144
94	4536	0	144
94	4992	0	144
94	5004	0	144
94	5136	0	144
94	5160	0	144
95	223	0	96
95	348	0	108
95	424	0	111
95	465	0	113
95	500	0	113
95	516	0	113
95	776	0	128
95	896	0	128
95	990	0	133
95	1398	0	135
95	2218	0	141
95	2224	0	141
95	2250	0	141
95	2438	0	142
95	2602	0	142
95	2984	0	144
95	3040	0	144
95	3356	0	144
95	3460	0	144
95	3608	0	144
95	3704	0	144
95	3784	0	144
95	4112	0	144
95	4120	0	144
95	5144	0	144
95	5604	0	144
96	240	0	97
96	243	0	97
96	248	0	97
96	299	0	102
96	449	0	113
96	468	0	113
96	520	0	113
96	527	0	113
96	838	0	128
96	871	0	128
96	1258	0	135
96	1288	0	135
96	1296	0	135
96	1516	0	136
96	1754	0	140
96	2384	0	142
96	2402	0	142
96	2624	0	142
96	3224	0	144
96	3308	0	144
96	3496	0	144
96	3724	0	144
96	3736	0	144
96	4024	0	144
96	4052	0	144
96	4444	0	144
96	4544	0	144
96	4588	0	144
96	4768	0	144
97	249	0	98
97	290	0	101
97	351	0	108
97	374	0	111
97	381	0	111
97	433	0	111
97	463	0	113
97	524	0	113
97	534	0	113
97	660	0	120
97	695	0	120
97	737	0	127
97	788	0	128
97	818	0	128
97	1050	0	133
97	1130	0	135
97	1252	0	135
97	1512	0	136
97	1700	0	140
97	1816	0	140
97	2012	0	141
97	2026	0	141
97	2124	0	141
97	2154	0	141
97	2304	0	142
97	2466	0	142
97	2498	0	142
97	2622	0	142
97	2658	0	142
97	2662	0	142
97	2708	0	142
97	2836	0	142
97	2958	0	144
97	3124	0	144
97	3644	0	144
97	4076	0	144
97	4240	0	144
98	253	0	99
98	282	0	100
98	441	0	111
98	616	0	120
98	628	0	120
98	653	0	120
98	710	0	121
98	864	0	128
98	1104	0	134
98	1222	0	135
98	1840	0	140
98	1852	0	140
98	1930	0	141
98	1950	0	141
98	2000	0	141
98	2072	0	141
98	2478	0	142
98	2510	0	142
98	2992	0	144
98	3836	0	144
98	4000	0	144
98	4728	0	144
98	5196	0	144
98	5548	0	144
99	256	0	100
99	293	0	101
99	366	0	110
99	369	0	110
99	467	0	113
99	578	0	118
99	652	0	120
99	714	0	121
99	972	0	133
99	1084	0	133
99	1102	0	134
99	1106	0	134
99	1230	0	135
99	1450	0	136
99	1488	0	136
99	1674	0	140
99	1694	0	140
99	1698	0	140
99	2002	0	141
99	2116	0	141
99	2128	0	141
99	2156	0	141
99	2160	0	141
99	2180	0	141
99	2246	0	141
99	2390	0	142
99	2654	0	142
99	2742	0	142
99	2748	0	142
99	2754	0	142
99	2850	0	142
99	2896	0	143
99	2930	0	144
99	2942	0	144
99	3084	0	144
99	3664	0	144
99	3776	0	144
99	3840	0	144
99	4028	0	144
99	4308	0	144
99	4600	0	144
99	5016	0	144
99	5132	0	144
99	5188	0	144
99	5496	0	144
100	286	0	101
100	1158	0	135
100	1266	0	135
100	2340	0	142
100	4096	0	144
100	4276	0	144
101	296	0	102
101	333	0	108
101	335	0	108
101	454	0	113
101	475	0	113
101	645	0	120
101	656	0	120
101	770	0	128
101	794	0	128
101	807	0	128
101	870	0	128
101	917	0	133
101	924	0	133
101	977	0	133
101	1070	0	133
101	1120	0	134
101	1138	0	135
101	1154	0	135
101	1164	0	135
101	1188	0	135
101	1508	0	136
101	1760	0	140
101	2068	0	141
101	2110	0	141
101	2274	0	141
101	2284	0	142
101	2322	0	142
101	2424	0	142
101	2430	0	142
101	2712	0	142
101	2730	0	142
101	2822	0	142
101	2890	0	143
101	2928	0	144
101	3216	0	144
101	3532	0	144
101	3808	0	144
101	4556	0	144
101	4572	0	144
101	5156	0	144
101	5520	0	144
102	302	0	103
102	331	0	108
102	2240	0	141
102	2442	0	142
102	4788	0	144
102	5208	0	144
102	5356	0	144
102	5432	0	144
103	318	0	104
103	595	0	119
103	1570	0	137
103	1866	0	140
103	1886	0	140
103	1900	0	140
103	3864	0	144
103	3952	0	144
103	4156	0	144
103	4812	0	144
103	4848	0	144
103	4920	0	144
103	4928	0	144
103	5256	0	144
103	5420	0	144
103	5436	0	144
104	319	0	105
104	1868	0	140
104	3956	0	144
104	4808	0	144
104	4924	0	144
104	5252	0	144
104	5348	0	144
105	320	0	106
105	943	0	133
105	945	0	133
106	322	0	107
106	585	0	118
106	928	0	133
106	1540	0	136
106	1546	0	137
106	1558	0	137
106	1592	0	137
106	1656	0	140
106	1876	0	140
106	1880	0	140
106	2786	0	142
106	3964	0	144
106	3972	0	144
106	3980	0	144
106	4748	0	144
106	5100	0	144
106	5384	0	144
106	5560	0	144
106	5572	0	144
107	330	0	108
107	593	0	119
107	941	0	133
107	1550	0	137
107	1590	0	137
107	3940	0	144
107	3948	0	144
107	4136	0	144
107	4884	0	144
107	4892	0	144
107	5320	0	144
107	5428	0	144
107	5564	0	144
108	360	0	109
108	898	0	129
108	991	0	133
108	1402	0	135
108	1412	0	136
109	361	0	110
109	846	0	128
109	988	0	133
109	993	0	133
109	1400	0	135
109	1410	0	136
109	3712	0	144
109	4204	0	144
109	4460	0	144
110	371	0	111
110	537	0	113
110	554	0	118
110	1082	0	133
110	1464	0	136
110	2134	0	141
110	2876	0	142
110	2880	0	143
111	445	0	112
111	668	0	120
111	730	0	127
111	744	0	127
111	847	0	128
111	1682	0	140
111	1992	0	141
111	2226	0	141
111	3568	0	144
111	3788	0	144
111	4208	0	144
111	4508	0	144
111	5472	0	144
112	446	0	113
112	1406	0	136
113	538	0	114
113	543	0	118
113	546	0	118
113	551	0	118
114	539	0	115
114	547	0	118
114	550	0	118
114	553	0	118
115	540	0	116
115	545	0	118
115	552	0	118
116	541	0	117
116	544	0	118
116	549	0	118
117	542	0	118
117	548	0	118
118	587	0	119
118	598	0	119
118	600	0	119
118	934	0	133
118	936	0	133
118	1580	0	137
118	1872	0	140
118	3884	0	144
118	3892	0	144
118	3932	0	144
118	4816	0	144
118	4828	0	144
118	4844	0	144
118	5268	0	144
118	5404	0	144
119	602	0	120
119	950	0	133
119	1736	0	140
119	1856	0	140
119	2512	0	142
119	4180	0	144
119	4856	0	144
120	702	0	121
120	955	0	133
120	1738	0	140
120	1854	0	140
120	1914	0	141
120	4908	0	144
120	5296	0	144
120	5308	0	144
121	717	0	122
121	743	0	127
121	912	0	133
121	914	0	133
121	2598	0	142
121	2696	0	142
121	5532	0	144
122	718	0	123
122	2588	0	142
122	2684	0	142
123	719	0	124
123	722	0	126
123	908	0	133
123	910	0	133
123	2592	0	142
123	2596	0	142
123	2678	0	142
123	2694	0	142
124	720	0	125
124	907	0	133
124	909	0	133
124	2580	0	142
124	2686	0	142
125	721	0	126
125	2682	0	142
125	2690	0	142
126	723	0	127
126	902	0	130
126	2576	0	142
126	2594	0	142
127	745	0	128
127	1778	0	140
127	2222	0	141
127	2572	0	142
127	2698	0	142
128	897	0	129
128	2220	0	141
128	2574	0	142
128	5536	0	144
129	899	0	130
129	1236	0	135
129	1768	0	140
129	3064	0	144
129	3072	0	144
129	3392	0	144
129	4016	0	144
129	4368	0	144
129	4396	0	144
130	903	0	131
130	906	0	133
130	911	0	133
130	913	0	133
130	2586	0	142
130	2692	0	142
131	904	0	132
131	2590	0	142
132	905	0	133
132	2578	0	142
132	2584	0	142
132	2680	0	142
132	2688	0	142
133	1404	0	136
133	4464	0	144
134	1544	0	137
134	1594	0	137
134	1602	0	140
135	1596	0	138
136	1598	0	139
137	1600	0	140
138	1910	0	141
138	3912	0	144
138	4936	0	144
138	5228	0	144
139	2582	0	142
140	2878	0	143

