version 3
run General-318-20250904-14:13:21-15734
attr configname General
attr datetime 20250904-14:13:21
attr datetimef 20250904-141321
attr experiment General
attr inifile omnetpp.ini
attr iterationvars ""
attr iterationvarsd ""
attr iterationvarsf ""
attr measurement ""
attr network TaxiNetwork
attr processid 15734
attr repetition 318
attr replication #318
attr resultdir results
attr runnumber 318
attr seedset 318
config network TaxiNetwork
config seed-set 318
config num-rngs 1
config sim-time-limit 10s
config repeat 500
config *.numWalkers 1
config *.enableDuplication true
config *.rc 700
config **.node[0].xCor 2933
config **.node[0].yCor 2747
config **.node[1].xCor 2919
config **.node[1].yCor 2817
config **.node[2].xCor 2910
config **.node[2].yCor 2861
config **.node[3].xCor 2429
config **.node[3].yCor 2851
config **.node[4].xCor 2908
config **.node[4].yCor 2714
config **.node[5].xCor 2606
config **.node[5].yCor 2722
config **.node[6].xCor 2575
config **.node[6].yCor 2753
config **.node[7].xCor 2654
config **.node[7].yCor 2513
config **.node[8].xCor 2773
config **.node[8].yCor 2580
config **.node[9].xCor 3043
config **.node[9].yCor 2780
config **.node[10].xCor 3020
config **.node[10].yCor 2813
config **.node[11].xCor 2599
config **.node[11].yCor 2300
config **.node[12].xCor 2917
config **.node[12].yCor 2698
config **.node[13].xCor 2625
config **.node[13].yCor 2641
config **.node[14].xCor 2604
config **.node[14].yCor 2790
config **.node[15].xCor 2786
config **.node[15].yCor 3082
config **.node[16].xCor 2603
config **.node[16].yCor 2802
config **.node[17].xCor 2637
config **.node[17].yCor 2869
config **.node[18].xCor 2675
config **.node[18].yCor 2955
config **.node[19].xCor 2845
config **.node[19].yCor 2937
config **.node[20].xCor 2860
config **.node[20].yCor 2888
config **.node[21].xCor 2843
config **.node[21].yCor 4158
config **.node[22].xCor 2852
config **.node[22].yCor 4017
config **.node[23].xCor 2892
config **.node[23].yCor 4961
config **.node[24].xCor 2313
config **.node[24].yCor 3993
config **.node[25].xCor 2891
config **.node[25].yCor 4959
config **.node[26].xCor 2370
config **.node[26].yCor 4050
config **.node[27].xCor 2788
config **.node[27].yCor 3958
config **.node[28].xCor 2819
config **.node[28].yCor 4428
config **.node[29].xCor 2790
config **.node[29].yCor 3761
config **.node[30].xCor 2809
config **.node[30].yCor 2908
config **.node[31].xCor 2919
config **.node[31].yCor 3575
config **.node[32].xCor 2946
config **.node[32].yCor 3466
config **.node[33].xCor 2911
config **.node[33].yCor 3453
config **.node[34].xCor 2370
config **.node[34].yCor 3656
config **.node[35].xCor 2438
config **.node[35].yCor 3738
config **.node[36].xCor 2737
config **.node[36].yCor 3570
config **.node[37].xCor 2921
config **.node[37].yCor 3698
config **.node[38].xCor 2907
config **.node[38].yCor 5197
config **.node[39].xCor 2860
config **.node[39].yCor 3852
config **.node[40].xCor 2927
config **.node[40].yCor 3684
config **.node[41].xCor 3023
config **.node[41].yCor 5313
config **.node[42].xCor 3220
config **.node[42].yCor 5811
config **.node[43].xCor 3432
config **.node[43].yCor 5715
config **.node[44].xCor 2754
config **.node[44].yCor 2463
config **.node[45].xCor 2646
config **.node[45].yCor 2673
config **.node[46].xCor 3051
config **.node[46].yCor 2792
config **.node[47].xCor 1666
config **.node[47].yCor 3697
config **.node[48].xCor 1662
config **.node[48].yCor 3694
config **.node[49].xCor 1664
config **.node[49].yCor 3667
config **.node[50].xCor 1660
config **.node[50].yCor 3664
config **.node[51].xCor 1710
config **.node[51].yCor 3573
config **.node[52].xCor 2082
config **.node[52].yCor 2650
config **.node[53].xCor 2086
config **.node[53].yCor 2657
config **.node[54].xCor 2257
config **.node[54].yCor 3232
config **.node[55].xCor 2258
config **.node[55].yCor 3225
config **.node[56].xCor 1926
config **.node[56].yCor 2570
config **.node[57].xCor 1926
config **.node[57].yCor 2576
config **.node[58].xCor 2104
config **.node[58].yCor 1758
config **.node[59].xCor 1957
config **.node[59].yCor 1826
config **.node[60].xCor 3473
config **.node[60].yCor 1523
config **.node[61].xCor 3335
config **.node[61].yCor 1726
config **.node[62].xCor 3478
config **.node[62].yCor 1517
config **.node[63].xCor 3386
config **.node[63].yCor 2119
config **.node[64].xCor 3474
config **.node[64].yCor 1762
config **.node[65].xCor 3797
config **.node[65].yCor 2099
config **.node[66].xCor 3642
config **.node[66].yCor 2136
config **.node[67].xCor 3481
config **.node[67].yCor 2334
config **.node[68].xCor 3088
config **.node[68].yCor 1505
config **.node[69].xCor 3037
config **.node[69].yCor 1693
config **.node[70].xCor 3026
config **.node[70].yCor 1700
config **.node[71].xCor 3019
config **.node[71].yCor 669
config **.node[72].xCor 3513
config **.node[72].yCor 1358
config **.node[73].xCor 3545
config **.node[73].yCor 1230
config **.node[74].xCor 4228
config **.node[74].yCor 4220
config **.node[75].xCor 3379
config **.node[75].yCor 1207
config **.node[76].xCor 3596
config **.node[76].yCor 963
config **.node[77].xCor 3637
config **.node[77].yCor 1188
config **.node[78].xCor 3759
config **.node[78].yCor 1030
config **.node[79].xCor 2918
config **.node[79].yCor 1455
config **.node[80].xCor 2711
config **.node[80].yCor 1297
config **.node[81].xCor 439
config **.node[81].yCor 1623
config **.node[82].xCor 2857
config **.node[82].yCor 3581
config **.node[83].xCor 2858
config **.node[83].yCor 3584
config **.node[84].xCor 2999
config **.node[84].yCor 2636
config **.node[85].xCor 2905
config **.node[85].yCor 2778
config **.node[86].xCor 2653
config **.node[86].yCor 2845
config **.node[87].xCor 2864
config **.node[87].yCor 2836
config **.node[88].xCor 2426
config **.node[88].yCor 2892
config **.node[89].xCor 2964
config **.node[89].yCor 2804
config **.node[90].xCor 2586
config **.node[90].yCor 3135
config **.node[91].xCor 2864
config **.node[91].yCor 2980
config **.node[92].xCor 2527
config **.node[92].yCor 3219
config **.node[93].xCor 2863
config **.node[93].yCor 3142
config **.node[94].xCor 2485
config **.node[94].yCor 3269
config **.node[95].xCor 2653
config **.node[95].yCor 1065
config **.node[96].xCor 4062
config **.node[96].yCor 400
config **.node[97].xCor 5762
config **.node[97].yCor 3023
config **.node[98].xCor 1414
config **.node[98].yCor 3461
config **.node[99].xCor 2911
config **.node[99].yCor 1737
config **.node[100].xCor 2595
config **.node[100].yCor 2299
config **.node[101].xCor 2702
config **.node[101].yCor 3419
config **.node[102].xCor 2813
config **.node[102].yCor 3307
config **.node[103].xCor 2638
config **.node[103].yCor 2258
config **.node[104].xCor 2590
config **.node[104].yCor 3125
config **.node[105].xCor 1856
config **.node[105].yCor 2990
config **.node[106].xCor 1894
config **.node[106].yCor 2239
config **.node[107].xCor 383
config **.node[107].yCor 1251
config **.node[108].xCor 3447
config **.node[108].yCor 5489
config **.node[109].xCor 3450
config **.node[109].yCor 5697
config **.node[110].xCor 2719
config **.node[110].yCor 1920
config **.node[111].xCor 2085
config **.node[111].yCor 2389
config **.node[112].xCor 1910
config **.node[112].yCor 2548
config **.node[113].xCor 2069
config **.node[113].yCor 2050
config **.node[114].xCor 2184
config **.node[114].yCor 2209
config **.node[115].xCor 2278
config **.node[115].yCor 2390
config **.node[116].xCor 2249
config **.node[116].yCor 2299
config **.node[117].xCor 2356
config **.node[117].yCor 2303
config **.node[118].xCor 2192
config **.node[118].yCor 2475
config **.node[119].xCor 1720
config **.node[119].yCor 2911
config **.node[120].xCor 2400
config **.node[120].yCor 2887
config **.node[121].xCor 3344
config **.node[121].yCor 1890
config **.node[122].xCor 3136
config **.node[122].yCor 2418
config **.node[123].xCor 3243
config **.node[123].yCor 2525
config **.node[124].xCor 2396
config **.node[124].yCor 1267
config **.node[125].xCor 467
config **.node[125].yCor 1875
config **.node[126].xCor 3506
config **.node[126].yCor 1221
config **.node[127].xCor 1034
config **.node[127].yCor 1474
config **.node[128].xCor 2908
config **.node[128].yCor 1784
config **.node[129].xCor 2876
config **.node[129].yCor 1761
config **.node[130].xCor 2849
config **.node[130].yCor 1795
config **.node[131].xCor 3029
config **.node[131].yCor 1859
config **.node[132].xCor 2924
config **.node[132].yCor 1848
config **.node[133].xCor 3493
config **.node[133].yCor 1559
config **.node[134].xCor 2760
config **.node[134].yCor 1761
config **.node[135].xCor 1644
config **.node[135].yCor 3755
config **.node[136].xCor 1463
config **.node[136].yCor 3432
config **.node[137].xCor 2595
config **.node[137].yCor 2849
config **.node[138].xCor 2581
config **.node[138].yCor 2867
config **.node[139].xCor 2524
config **.node[139].yCor 2911
config **.node[140].xCor 2570
config **.node[140].yCor 2924
config **.node[141].xCor 2676
config **.node[141].yCor 2890
config **.node[142].xCor 2666
config **.node[142].yCor 2876
config **.node[143].xCor 3735
config **.node[143].yCor 1726
config **.node[144].xCor 1637
config **.node[144].yCor 3438

vector 0 TaxiNetwork.node[100] visitedPerTimestep ETV
vector 1 TaxiNetwork.node[129] visitedPerTimestep ETV
vector 2 TaxiNetwork.node[80] visitedPerTimestep ETV
vector 3 TaxiNetwork.node[68] visitedPerTimestep ETV
vector 4 TaxiNetwork.node[62] visitedPerTimestep ETV
vector 5 TaxiNetwork.node[143] visitedPerTimestep ETV
vector 6 TaxiNetwork.node[65] visitedPerTimestep ETV
vector 7 TaxiNetwork.node[123] visitedPerTimestep ETV
vector 8 TaxiNetwork.node[30] visitedPerTimestep ETV
vector 9 TaxiNetwork.node[2] visitedPerTimestep ETV
vector 10 TaxiNetwork.node[17] visitedPerTimestep ETV
vector 11 TaxiNetwork.node[89] visitedPerTimestep ETV
vector 12 TaxiNetwork.node[16] visitedPerTimestep ETV
vector 13 TaxiNetwork.node[44] visitedPerTimestep ETV
vector 14 TaxiNetwork.node[104] visitedPerTimestep ETV
vector 15 TaxiNetwork.node[142] visitedPerTimestep ETV
vector 16 TaxiNetwork.node[4] visitedPerTimestep ETV
vector 17 TaxiNetwork.node[14] visitedPerTimestep ETV
vector 18 TaxiNetwork.node[55] visitedPerTimestep ETV
vector 19 TaxiNetwork.node[11] visitedPerTimestep ETV
vector 20 TaxiNetwork.node[20] visitedPerTimestep ETV
vector 21 TaxiNetwork.node[86] visitedPerTimestep ETV
vector 22 TaxiNetwork.node[101] visitedPerTimestep ETV
vector 23 TaxiNetwork.node[10] visitedPerTimestep ETV
vector 24 TaxiNetwork.node[138] visitedPerTimestep ETV
vector 25 TaxiNetwork.node[12] visitedPerTimestep ETV
vector 26 TaxiNetwork.node[94] visitedPerTimestep ETV
vector 27 TaxiNetwork.node[88] visitedPerTimestep ETV
vector 28 TaxiNetwork.node[15] visitedPerTimestep ETV
vector 29 TaxiNetwork.node[120] visitedPerTimestep ETV
vector 30 TaxiNetwork.node[139] visitedPerTimestep ETV
vector 31 TaxiNetwork.node[103] visitedPerTimestep ETV
vector 32 TaxiNetwork.node[128] visitedPerTimestep ETV
vector 33 TaxiNetwork.node[60] visitedPerTimestep ETV
vector 34 TaxiNetwork.node[77] visitedPerTimestep ETV
vector 35 TaxiNetwork.node[73] visitedPerTimestep ETV
vector 36 TaxiNetwork.node[61] visitedPerTimestep ETV
vector 37 TaxiNetwork.node[70] visitedPerTimestep ETV
vector 38 TaxiNetwork.node[99] visitedPerTimestep ETV
vector 39 TaxiNetwork.node[64] visitedPerTimestep ETV
vector 40 TaxiNetwork.node[126] visitedPerTimestep ETV
vector 41 TaxiNetwork.node[133] visitedPerTimestep ETV
vector 42 TaxiNetwork.node[63] visitedPerTimestep ETV
vector 43 TaxiNetwork.node[131] visitedPerTimestep ETV
vector 44 TaxiNetwork.node[121] visitedPerTimestep ETV
vector 45 TaxiNetwork.node[134] visitedPerTimestep ETV
vector 46 TaxiNetwork.node[110] visitedPerTimestep ETV
vector 47 TaxiNetwork.node[7] visitedPerTimestep ETV
vector 48 TaxiNetwork.node[141] visitedPerTimestep ETV
vector 49 TaxiNetwork.node[39] visitedPerTimestep ETV
vector 50 TaxiNetwork.node[21] visitedPerTimestep ETV
vector 51 TaxiNetwork.node[35] visitedPerTimestep ETV
vector 52 TaxiNetwork.node[90] visitedPerTimestep ETV
vector 53 TaxiNetwork.node[82] visitedPerTimestep ETV
vector 54 TaxiNetwork.node[105] visitedPerTimestep ETV
vector 55 TaxiNetwork.node[57] visitedPerTimestep ETV
vector 56 TaxiNetwork.node[114] visitedPerTimestep ETV
vector 57 TaxiNetwork.node[8] visitedPerTimestep ETV
vector 58 TaxiNetwork.node[93] visitedPerTimestep ETV
vector 59 TaxiNetwork.node[102] visitedPerTimestep ETV
vector 60 TaxiNetwork.node[92] visitedPerTimestep ETV
vector 61 TaxiNetwork.node[0] visitedPerTimestep ETV
vector 62 TaxiNetwork.node[3] visitedPerTimestep ETV
vector 63 TaxiNetwork.node[18] visitedPerTimestep ETV
vector 64 TaxiNetwork.node[84] visitedPerTimestep ETV
vector 65 TaxiNetwork.node[9] visitedPerTimestep ETV
vector 66 TaxiNetwork.node[13] visitedPerTimestep ETV
vector 67 TaxiNetwork.node[52] visitedPerTimestep ETV
vector 68 TaxiNetwork.node[56] visitedPerTimestep ETV
vector 69 TaxiNetwork.node[6] visitedPerTimestep ETV
vector 70 TaxiNetwork.node[130] visitedPerTimestep ETV
vector 71 TaxiNetwork.node[66] visitedPerTimestep ETV
vector 72 TaxiNetwork.node[122] visitedPerTimestep ETV
vector 73 TaxiNetwork.node[72] visitedPerTimestep ETV
vector 74 TaxiNetwork.node[1] visitedPerTimestep ETV
vector 75 TaxiNetwork.node[5] visitedPerTimestep ETV
vector 76 TaxiNetwork.node[91] visitedPerTimestep ETV
vector 77 TaxiNetwork.node[118] visitedPerTimestep ETV
vector 78 TaxiNetwork.node[115] visitedPerTimestep ETV
vector 79 TaxiNetwork.node[85] visitedPerTimestep ETV
vector 80 TaxiNetwork.node[32] visitedPerTimestep ETV
vector 81 TaxiNetwork.node[83] visitedPerTimestep ETV
vector 82 TaxiNetwork.node[53] visitedPerTimestep ETV
vector 83 TaxiNetwork.node[113] visitedPerTimestep ETV
vector 84 TaxiNetwork.node[140] visitedPerTimestep ETV
vector 85 TaxiNetwork.node[116] visitedPerTimestep ETV
vector 86 TaxiNetwork.node[144] visitedPerTimestep ETV
vector 87 TaxiNetwork.node[47] visitedPerTimestep ETV
vector 88 TaxiNetwork.node[48] visitedPerTimestep ETV
vector 89 TaxiNetwork.node[98] visitedPerTimestep ETV
vector 90 TaxiNetwork.node[49] visitedPerTimestep ETV
vector 91 TaxiNetwork.node[136] visitedPerTimestep ETV
vector 92 TaxiNetwork.node[50] visitedPerTimestep ETV
vector 93 TaxiNetwork.node[51] visitedPerTimestep ETV
vector 94 TaxiNetwork.node[119] visitedPerTimestep ETV
vector 95 TaxiNetwork.node[87] visitedPerTimestep ETV
vector 96 TaxiNetwork.node[45] visitedPerTimestep ETV
vector 97 TaxiNetwork.node[36] visitedPerTimestep ETV
vector 98 TaxiNetwork.node[33] visitedPerTimestep ETV
vector 99 TaxiNetwork.node[112] visitedPerTimestep ETV
vector 100 TaxiNetwork.node[117] visitedPerTimestep ETV
vector 101 TaxiNetwork.node[46] visitedPerTimestep ETV
vector 102 TaxiNetwork.node[137] visitedPerTimestep ETV
vector 103 TaxiNetwork.node[54] visitedPerTimestep ETV
vector 104 TaxiNetwork.node[19] visitedPerTimestep ETV
vector 105 TaxiNetwork.node[40] visitedPerTimestep ETV
vector 106 TaxiNetwork.node[22] visitedPerTimestep ETV
vector 107 TaxiNetwork.node[79] visitedPerTimestep ETV
vector 108 TaxiNetwork.node[76] visitedPerTimestep ETV
vector 109 TaxiNetwork.node[34] visitedPerTimestep ETV
vector 110 TaxiNetwork.node[69] visitedPerTimestep ETV
vector 111 TaxiNetwork.node[75] visitedPerTimestep ETV
vector 112 TaxiNetwork.node[78] visitedPerTimestep ETV
vector 113 TaxiNetwork.node[132] visitedPerTimestep ETV
vector 114 TaxiNetwork.node[124] visitedPerTimestep ETV
vector 115 TaxiNetwork.node[67] visitedPerTimestep ETV
vector 116 TaxiNetwork.node[111] visitedPerTimestep ETV
vector 117 TaxiNetwork.node[135] visitedPerTimestep ETV
vector 118 TaxiNetwork.node[31] visitedPerTimestep ETV
vector 119 TaxiNetwork.node[37] visitedPerTimestep ETV
vector 120 TaxiNetwork.node[106] visitedPerTimestep ETV
vector 121 TaxiNetwork.node[26] visitedPerTimestep ETV
vector 122 TaxiNetwork.node[29] visitedPerTimestep ETV
vector 123 TaxiNetwork.node[28] visitedPerTimestep ETV
vector 124 TaxiNetwork.node[24] visitedPerTimestep ETV
vector 125 TaxiNetwork.node[27] visitedPerTimestep ETV
vector 126 TaxiNetwork.node[71] visitedPerTimestep ETV
vector 127 TaxiNetwork.node[95] visitedPerTimestep ETV
vector 128 TaxiNetwork.node[58] visitedPerTimestep ETV
vector 129 TaxiNetwork.node[59] visitedPerTimestep ETV
vector 130 TaxiNetwork.node[25] visitedPerTimestep ETV
vector 131 TaxiNetwork.node[38] visitedPerTimestep ETV
vector 132 TaxiNetwork.node[23] visitedPerTimestep ETV
vector 133 TaxiNetwork.node[127] visitedPerTimestep ETV
vector 134 TaxiNetwork.node[74] visitedPerTimestep ETV
vector 135 TaxiNetwork.node[97] visitedPerTimestep ETV
0	1	0	1
0	245	0	103
0	247	0	103
0	250	0	103
0	524	0	115
0	693	0	119
0	759	0	119
0	810	0	120
0	868	0	122
0	891	0	122
0	973	0	125
0	1134	0	126
0	1194	0	126
0	1374	0	126
0	1530	0	127
0	1712	0	127
0	1728	0	127
0	1884	0	127
0	2530	0	136
0	2598	0	136
0	2724	0	138
0	2836	0	138
0	2936	0	138
0	3468	0	138
0	3708	0	138
0	3724	0	138
0	4048	0	139
0	4128	0	139
0	5044	0	141
0	5076	0	141
0	5456	0	141
0	5468	0	141
0	5696	0	141
0	5712	0	141
0	6580	0	144
1	2	0	2
1	47	0	39
1	369	0	108
1	384	0	109
1	475	0	114
1	509	0	115
1	527	0	115
1	729	0	119
1	813	0	120
1	816	0	120
1	1048	0	126
1	1924	0	129
1	2004	0	130
1	2814	0	138
1	3844	0	139
1	4052	0	139
1	4836	0	141
1	4976	0	141
2	3	0	3
2	819	0	120
2	1928	0	129
2	3780	0	139
2	4428	0	139
2	5088	0	141
2	5144	0	141
2	5172	0	141
2	5180	0	141
2	6744	0	144
3	4	0	4
3	106	0	71
3	117	0	71
3	481	0	115
3	512	0	115
3	1902	0	129
3	1922	0	129
3	1944	0	129
3	1972	0	130
3	1976	0	130
3	2264	0	130
3	2288	0	130
3	3832	0	139
3	5060	0	141
3	5092	0	141
3	5104	0	141
3	5140	0	141
3	5208	0	141
4	5	0	5
4	105	0	71
4	107	0	71
4	112	0	71
4	114	0	71
4	440	0	110
4	1912	0	129
4	2018	0	130
4	2278	0	130
4	2484	0	136
4	2500	0	136
4	4004	0	139
4	4088	0	139
4	4364	0	139
4	4828	0	141
4	4984	0	141
4	5136	0	141
4	6660	0	144
5	6	0	6
5	118	0	71
5	386	0	109
5	710	0	119
5	1274	0	126
5	1974	0	130
5	2016	0	130
5	2284	0	130
5	6704	0	144
6	7	0	7
6	102	0	71
6	380	0	109
6	387	0	109
6	514	0	115
6	703	0	119
6	2020	0	130
6	2802	0	138
6	3808	0	139
6	6764	0	144
7	8	0	8
7	143	0	77
7	177	0	85
7	211	0	97
7	388	0	109
7	436	0	110
7	464	0	114
7	487	0	115
7	505	0	115
7	788	0	120
7	823	0	120
7	837	0	120
7	963	0	125
7	1232	0	126
7	1280	0	126
7	1740	0	127
7	2026	0	130
7	2216	0	130
7	2800	0	138
7	3028	0	138
7	3492	0	138
7	4352	0	139
7	4460	0	139
7	4740	0	139
7	4852	0	141
7	5020	0	141
7	5236	0	141
7	5248	0	141
7	6096	0	144
7	6576	0	144
7	6716	0	144
7	6728	0	144
7	6768	0	144
7	7160	0	144
8	9	0	9
8	30	0	26
8	240	0	102
8	262	0	103
8	271	0	103
8	359	0	107
8	496	0	115
8	585	0	116
8	587	0	116
8	745	0	119
8	750	0	119
8	827	0	120
8	846	0	121
8	896	0	122
8	951	0	125
8	981	0	126
8	1016	0	126
8	1226	0	126
8	1284	0	126
8	1864	0	127
8	2148	0	130
8	2152	0	130
8	2392	0	135
8	2564	0	136
8	2572	0	136
8	2636	0	136
8	3376	0	138
8	3400	0	138
8	3524	0	138
8	3876	0	139
8	4312	0	139
8	4464	0	139
8	4500	0	139
8	4648	0	139
8	4856	0	141
8	4968	0	141
8	5276	0	141
8	5948	0	144
8	5972	0	144
8	6276	0	144
8	6344	0	144
8	6456	0	144
8	6524	0	144
8	6968	0	144
9	10	0	10
9	268	0	103
9	308	0	104
9	313	0	104
9	419	0	110
9	579	0	116
9	830	0	120
9	848	0	121
9	1014	0	126
9	1180	0	126
9	1452	0	126
9	1456	0	127
9	1770	0	127
9	2552	0	136
9	2562	0	136
9	2790	0	138
9	2942	0	138
9	2978	0	138
9	2988	0	138
9	3052	0	138
9	3416	0	138
9	4272	0	139
9	4488	0	139
9	5508	0	141
9	5676	0	141
9	5684	0	141
9	6724	0	144
10	11	0	11
10	25	0	22
10	140	0	76
10	149	0	80
10	151	0	80
10	221	0	99
10	299	0	103
10	356	0	107
10	460	0	114
10	653	0	119
10	807	0	120
10	865	0	122
10	901	0	122
10	909	0	122
10	953	0	125
10	971	0	125
10	1042	0	126
10	1450	0	126
10	1560	0	127
10	1594	0	127
10	1696	0	127
10	1738	0	127
10	2178	0	130
10	2250	0	130
10	2320	0	132
10	2360	0	132
10	2568	0	136
10	2640	0	136
10	2700	0	136
10	3140	0	138
10	3496	0	138
10	3628	0	138
10	3764	0	139
10	3880	0	139
10	3920	0	139
10	3964	0	139
10	4292	0	139
10	4476	0	139
10	4568	0	139
10	4764	0	139
10	4868	0	141
10	6240	0	144
10	6544	0	144
10	6940	0	144
11	12	0	12
11	23	0	21
11	139	0	76
11	163	0	82
11	242	0	103
11	258	0	103
11	353	0	107
11	459	0	114
11	468	0	114
11	546	0	116
11	669	0	119
11	719	0	119
11	804	0	120
11	1010	0	126
11	1188	0	126
11	1708	0	127
11	2028	0	130
11	2064	0	130
11	2454	0	135
11	2624	0	136
11	2718	0	138
11	2728	0	138
11	2736	0	138
11	3184	0	138
11	3232	0	138
11	3480	0	138
11	3488	0	138
11	4604	0	139
11	4700	0	139
11	4784	0	139
11	5328	0	141
11	5352	0	141
11	5500	0	141
11	5580	0	141
11	5816	0	141
11	6000	0	144
11	6284	0	144
11	6404	0	144
11	6448	0	144
11	6824	0	144
11	6952	0	144
11	7376	0	145
12	13	0	13
12	20	0	19
12	83	0	62
12	136	0	75
12	170	0	82
12	178	0	85
12	225	0	99
12	269	0	103
12	286	0	103
12	302	0	103
12	304	0	103
12	371	0	108
12	405	0	109
12	420	0	110
12	670	0	119
12	672	0	119
12	679	0	119
12	835	0	120
12	860	0	122
12	890	0	122
12	970	0	125
12	1006	0	126
12	1214	0	126
12	1222	0	126
12	1742	0	127
12	2248	0	130
12	2632	0	136
12	3476	0	138
12	3904	0	139
12	3952	0	139
12	4560	0	139
12	4592	0	139
12	4644	0	139
12	4720	0	139
12	4752	0	139
12	4908	0	141
12	5488	0	141
12	5532	0	141
12	5604	0	141
12	5932	0	143
12	6360	0	144
12	6392	0	144
13	14	0	14
13	99	0	70
13	162	0	82
13	167	0	82
13	374	0	108
13	457	0	114
13	493	0	115
13	559	0	116
13	590	0	116
13	658	0	119
13	716	0	119
13	772	0	119
13	1440	0	126
13	1464	0	127
13	1522	0	127
13	1698	0	127
13	1716	0	127
13	1816	0	127
13	1980	0	130
13	1984	0	130
13	1998	0	130
13	2030	0	130
13	2234	0	130
13	2244	0	130
13	2574	0	136
13	2720	0	138
13	3048	0	138
13	3440	0	138
13	4156	0	139
13	4172	0	139
13	4548	0	139
13	4580	0	139
13	4684	0	139
13	5244	0	141
13	5400	0	141
13	5916	0	142
13	6132	0	144
13	6224	0	144
13	6248	0	144
13	6652	0	144
13	6936	0	144
13	7080	0	144
14	15	0	15
14	86	0	63
14	306	0	104
14	320	0	105
14	743	0	119
14	771	0	119
14	775	0	119
14	783	0	120
14	845	0	121
14	1112	0	126
14	1124	0	126
14	1128	0	126
14	1298	0	126
14	1318	0	126
14	1330	0	126
14	1380	0	126
14	1406	0	126
14	1478	0	127
14	1802	0	127
14	1826	0	127
14	2038	0	130
14	2140	0	130
14	2160	0	130
14	2166	0	130
14	2236	0	130
14	2324	0	132
14	2778	0	138
14	2888	0	138
14	2896	0	138
14	2954	0	138
14	3152	0	138
14	3332	0	138
14	3340	0	138
14	3520	0	138
14	4468	0	139
14	4656	0	139
14	5256	0	141
14	5280	0	141
14	5592	0	141
14	6272	0	144
14	7144	0	144
14	7352	0	144
15	16	0	16
15	34	0	29
15	85	0	63
15	98	0	70
15	153	0	81
15	209	0	97
15	350	0	107
15	361	0	107
15	403	0	109
15	575	0	116
15	609	0	118
15	824	0	120
15	1064	0	126
15	1386	0	126
15	1508	0	127
15	1580	0	127
15	1784	0	127
15	1860	0	127
15	2710	0	136
15	2886	0	138
15	3504	0	138
15	3576	0	138
15	3740	0	138
15	4236	0	139
15	4256	0	139
15	5348	0	141
15	5624	0	141
15	5868	0	141
15	6624	0	144
15	6916	0	144
16	17	0	17
16	208	0	97
16	297	0	103
16	324	0	105
16	344	0	107
16	435	0	110
16	695	0	119
16	785	0	120
16	954	0	125
16	956	0	125
16	1034	0	126
16	1572	0	127
16	1618	0	127
16	1992	0	130
16	2224	0	130
16	2444	0	135
16	2614	0	136
16	2646	0	136
16	2944	0	138
16	4132	0	139
16	4348	0	139
16	4716	0	139
16	5844	0	141
16	5924	0	143
16	5984	0	144
16	6028	0	144
16	6092	0	144
16	6280	0	144
16	6340	0	144
16	6452	0	144
16	6812	0	144
17	18	0	18
17	161	0	82
17	263	0	103
17	278	0	103
17	287	0	103
17	339	0	107
17	341	0	107
17	432	0	110
17	499	0	115
17	541	0	116
17	554	0	116
17	748	0	119
17	864	0	122
17	928	0	123
17	952	0	125
17	1018	0	126
17	1096	0	126
17	1160	0	126
17	1206	0	126
17	1468	0	127
17	1568	0	127
17	1720	0	127
17	2202	0	130
17	2442	0	135
17	2650	0	136
17	2908	0	138
17	3284	0	138
17	3392	0	138
17	3900	0	139
17	4544	0	139
17	4712	0	139
17	5316	0	141
17	5368	0	141
17	5516	0	141
17	5636	0	141
17	5704	0	141
17	5836	0	141
17	6372	0	144
17	6608	0	144
17	6964	0	144
17	7336	0	144
18	19	0	19
18	72	0	54
18	223	0	99
18	238	0	102
18	319	0	105
18	502	0	115
18	610	0	118
18	741	0	119
18	770	0	119
18	782	0	120
18	796	0	120
18	798	0	120
18	856	0	122
18	882	0	122
18	925	0	123
18	1020	0	126
18	1092	0	126
18	1202	0	126
18	1350	0	126
18	1578	0	127
18	1598	0	127
18	1670	0	127
18	1682	0	127
18	1732	0	127
18	1878	0	127
18	2094	0	130
18	2162	0	130
18	2878	0	138
18	2918	0	138
18	2994	0	138
18	3164	0	138
18	4652	0	139
18	4768	0	139
18	5264	0	141
18	5272	0	141
18	5544	0	141
18	6324	0	144
18	6988	0	144
18	7024	0	144
18	7280	0	144
18	7360	0	144
19	21	0	20
19	89	0	65
19	132	0	74
19	230	0	101
19	248	0	103
19	281	0	103
19	315	0	104
19	360	0	107
19	362	0	107
19	423	0	110
19	428	0	110
19	535	0	116
19	556	0	116
19	568	0	116
19	715	0	119
19	734	0	119
19	746	0	119
19	790	0	120
19	895	0	122
19	962	0	125
19	1052	0	126
19	1410	0	126
19	1458	0	127
19	1518	0	127
19	1532	0	127
19	1654	0	127
19	1818	0	127
19	1830	0	127
19	2410	0	135
19	2468	0	135
19	2550	0	136
19	2610	0	136
19	2704	0	136
19	3448	0	138
19	3912	0	139
19	3944	0	139
19	4104	0	139
19	4736	0	139
19	4956	0	141
19	5496	0	141
19	5720	0	141
19	6220	0	144
19	6540	0	144
19	6736	0	144
20	22	0	21
20	71	0	54
20	205	0	97
20	212	0	97
20	219	0	99
20	232	0	102
20	244	0	103
20	389	0	109
20	399	0	109
20	402	0	109
20	627	0	118
20	656	0	119
20	726	0	119
20	739	0	119
20	773	0	119
20	799	0	120
20	949	0	125
20	1140	0	126
20	1282	0	126
20	1326	0	126
20	1370	0	126
20	1428	0	126
20	1436	0	126
20	1444	0	126
20	1542	0	127
20	1556	0	127
20	1582	0	127
20	1990	0	130
20	2440	0	135
20	2542	0	136
20	2882	0	138
20	3024	0	138
20	3156	0	138
20	3428	0	138
20	4232	0	139
20	4240	0	139
20	4260	0	139
20	4284	0	139
20	4516	0	139
20	4772	0	139
20	5448	0	141
20	5512	0	141
20	5524	0	141
20	5692	0	141
20	5780	0	141
20	6536	0	144
21	24	0	22
21	79	0	60
21	266	0	103
21	272	0	103
21	314	0	104
21	358	0	107
21	422	0	110
21	545	0	116
21	604	0	118
21	611	0	118
21	665	0	119
21	678	0	119
21	762	0	119
21	768	0	119
21	862	0	122
21	997	0	126
21	1570	0	127
21	1590	0	127
21	1600	0	127
21	1798	0	127
21	2032	0	130
21	2696	0	136
21	2794	0	138
21	3584	0	138
21	3728	0	138
21	4028	0	139
21	4248	0	139
21	4276	0	139
21	4952	0	141
21	5920	0	142
21	6176	0	144
21	6616	0	144
21	6632	0	144
21	6948	0	144
21	6960	0	144
21	7040	0	144
21	7088	0	144
22	26	0	23
22	64	0	49
22	267	0	103
22	621	0	118
22	769	0	119
22	859	0	122
22	885	0	122
22	922	0	122
22	948	0	125
22	977	0	125
22	988	0	126
22	1090	0	126
22	1142	0	126
22	1286	0	126
22	1388	0	126
22	1504	0	127
22	1840	0	127
22	2192	0	130
22	2228	0	130
22	2370	0	132
22	2448	0	135
22	2652	0	136
22	2840	0	138
22	2890	0	138
22	2898	0	138
22	2928	0	138
22	5740	0	141
22	6320	0	144
22	6568	0	144
22	6908	0	144
22	7288	0	144
23	27	0	24
23	142	0	77
23	323	0	105
23	433	0	110
23	537	0	116
23	540	0	116
23	550	0	116
23	723	0	119
23	888	0	122
23	904	0	122
23	1030	0	126
23	1446	0	126
23	1748	0	127
23	1838	0	127
23	1844	0	127
23	1994	0	130
23	2034	0	130
23	2134	0	130
23	2350	0	132
23	2638	0	136
23	2644	0	136
23	2952	0	138
23	3188	0	138
23	3204	0	138
23	3360	0	138
23	3624	0	138
23	4760	0	139
23	4788	0	139
23	4960	0	141
23	5240	0	141
23	5612	0	141
23	5892	0	141
24	28	0	25
24	239	0	102
24	255	0	103
24	357	0	107
24	390	0	109
24	414	0	110
24	543	0	116
24	667	0	119
24	795	0	120
24	834	0	120
24	861	0	122
24	902	0	122
24	1204	0	126
24	1356	0	126
24	1364	0	126
24	1448	0	126
24	1588	0	127
24	1730	0	127
24	1800	0	127
24	1828	0	127
24	2172	0	130
24	2188	0	130
24	2222	0	130
24	2408	0	135
24	2612	0	136
24	2990	0	138
24	3908	0	139
24	3928	0	139
24	4228	0	139
24	4876	0	141
24	5416	0	141
24	5664	0	141
24	6260	0	144
24	6396	0	144
24	6532	0	144
24	7128	0	144
25	29	0	26
25	251	0	103
25	265	0	103
25	282	0	103
25	456	0	114
25	544	0	116
25	577	0	116
25	626	0	118
25	646	0	119
25	764	0	119
25	787	0	120
25	998	0	126
25	1036	0	126
25	1218	0	126
25	1408	0	126
25	1472	0	127
25	1832	0	127
25	3132	0	138
25	3224	0	138
25	3608	0	138
25	3768	0	139
25	3932	0	139
25	4528	0	139
25	5012	0	141
25	5340	0	141
25	5452	0	141
25	5988	0	144
25	6144	0	144
25	7152	0	144
26	31	0	27
26	70	0	54
26	80	0	60
26	276	0	103
26	311	0	104
26	325	0	105
26	580	0	116
26	664	0	119
26	753	0	119
26	806	0	120
26	849	0	121
26	884	0	122
26	1432	0	126
26	1510	0	127
26	1550	0	127
26	1722	0	127
26	2732	0	138
26	2906	0	138
26	3572	0	138
26	4596	0	139
26	5388	0	141
26	5484	0	141
26	5520	0	141
26	5688	0	141
26	5824	0	141
26	6480	0	144
26	6520	0	144
26	6552	0	144
26	6792	0	144
27	32	0	28
27	63	0	49
27	213	0	97
27	316	0	104
27	411	0	110
27	467	0	114
27	573	0	116
27	586	0	116
27	686	0	119
27	697	0	119
27	721	0	119
27	906	0	122
27	919	0	122
27	959	0	125
27	991	0	126
27	1372	0	126
27	1466	0	127
27	1692	0	127
27	1718	0	127
27	1776	0	127
27	1794	0	127
27	1820	0	127
27	1834	0	127
27	2102	0	130
27	2318	0	132
27	2536	0	136
27	2634	0	136
27	2670	0	136
27	2706	0	136
27	2752	0	138
27	2972	0	138
27	4344	0	139
27	4692	0	139
27	4804	0	139
27	4884	0	141
27	5360	0	141
27	5852	0	141
27	6120	0	144
27	6212	0	144
27	6232	0	144
28	33	0	29
28	150	0	80
28	160	0	82
28	312	0	104
28	393	0	109
28	397	0	109
28	498	0	115
28	613	0	118
28	615	0	118
28	639	0	119
28	947	0	125
28	1114	0	126
28	1162	0	126
28	1302	0	126
28	1320	0	126
28	1592	0	127
28	1702	0	127
28	1854	0	127
28	2190	0	130
28	2554	0	136
28	2560	0	136
28	2628	0	136
28	2734	0	138
28	2758	0	138
28	2776	0	138
28	3076	0	138
28	3160	0	138
28	3236	0	138
28	3960	0	139
28	4512	0	139
28	5760	0	141
28	5772	0	141
28	6364	0	144
28	6400	0	144
28	6804	0	144
28	6876	0	144
29	35	0	30
29	202	0	95
29	233	0	102
29	293	0	103
29	401	0	109
29	495	0	115
29	612	0	118
29	754	0	119
29	858	0	122
29	1004	0	126
29	1166	0	126
29	1602	0	127
29	1622	0	127
29	1626	0	127
29	1664	0	127
29	1672	0	127
29	1700	0	127
29	1796	0	127
29	1846	0	127
29	1852	0	127
29	2352	0	132
29	2418	0	135
29	2438	0	135
29	2622	0	136
29	2666	0	136
29	3512	0	138
29	3564	0	138
29	4192	0	139
29	4612	0	139
29	4964	0	141
29	5804	0	141
29	5884	0	141
29	5960	0	144
29	6588	0	144
29	6992	0	144
29	7200	0	144
29	7368	0	144
30	36	0	31
30	165	0	82
30	462	0	114
30	567	0	116
30	682	0	119
30	792	0	120
30	802	0	120
30	887	0	122
30	889	0	122
30	1094	0	126
30	1360	0	126
30	1574	0	127
30	1772	0	127
30	1824	0	127
30	3172	0	138
30	3200	0	138
30	3304	0	138
30	3352	0	138
30	3872	0	139
30	4264	0	139
30	4532	0	139
30	4632	0	139
30	4756	0	139
30	5376	0	141
30	5384	0	141
30	6356	0	144
30	6584	0	144
30	6868	0	144
30	6944	0	144
30	6972	0	144
31	37	0	32
31	280	0	103
31	370	0	108
31	437	0	110
31	455	0	114
31	463	0	114
31	469	0	114
31	492	0	115
31	562	0	116
31	608	0	118
31	652	0	119
31	657	0	119
31	698	0	119
31	825	0	120
31	914	0	122
31	1046	0	126
31	1050	0	126
31	1190	0	126
31	1224	0	126
31	1246	0	126
31	1414	0	126
31	1426	0	126
31	1642	0	127
31	1660	0	127
31	1778	0	127
31	2362	0	132
31	2818	0	138
31	3604	0	138
31	3612	0	138
31	3772	0	139
31	3868	0	139
31	4184	0	139
31	4208	0	139
31	4556	0	139
31	4744	0	139
31	4972	0	141
31	5024	0	141
31	5668	0	141
31	5708	0	141
31	5928	0	143
31	7176	0	144
32	38	0	33
32	53	0	42
32	116	0	71
32	366	0	107
32	454	0	114
32	474	0	114
32	525	0	115
32	1244	0	126
32	1252	0	126
32	1256	0	126
32	1886	0	127
32	1932	0	129
32	1958	0	129
32	2258	0	130
32	2296	0	130
32	2474	0	135
32	2832	0	138
32	4064	0	139
32	4404	0	139
32	4432	0	139
32	4728	0	139
32	5156	0	141
33	39	0	34
33	42	0	36
33	44	0	37
33	101	0	71
33	376	0	108
33	379	0	109
33	447	0	112
33	510	0	115
33	513	0	115
33	531	0	116
33	707	0	119
33	1240	0	126
33	1272	0	126
33	2010	0	130
33	2014	0	130
33	2270	0	130
33	2498	0	136
33	2804	0	138
33	3804	0	139
33	4012	0	139
33	4060	0	139
33	4380	0	139
33	4440	0	139
33	5064	0	141
33	5108	0	141
33	5128	0	141
33	5200	0	141
33	6688	0	144
33	6760	0	144
34	40	0	35
34	50	0	41
34	709	0	119
34	1262	0	126
34	1910	0	129
34	1914	0	129
34	1938	0	129
34	2012	0	130
34	2286	0	130
34	3852	0	139
34	5132	0	141
34	5196	0	141
34	5204	0	141
35	41	0	36
35	111	0	71
35	378	0	109
35	441	0	110
35	478	0	115
35	1890	0	127
35	1968	0	130
35	2502	0	136
35	4000	0	139
35	6692	0	144
35	6756	0	144
36	43	0	37
36	103	0	71
36	108	0	71
36	115	0	71
36	120	0	72
36	124	0	73
36	129	0	74
36	439	0	110
36	482	0	115
36	1238	0	126
36	1266	0	126
36	1894	0	127
36	2022	0	130
36	2274	0	130
36	2826	0	138
36	3796	0	139
36	3860	0	139
36	4392	0	139
36	4416	0	139
36	5212	0	141
36	6752	0	144
37	45	0	38
37	52	0	42
37	364	0	107
37	438	0	110
37	473	0	114
37	1948	0	129
37	1960	0	129
37	2472	0	135
37	2810	0	138
37	3460	0	138
37	3828	0	139
37	3864	0	139
37	4080	0	139
37	4096	0	139
37	4384	0	139
37	4832	0	141
37	4840	0	141
37	5096	0	141
37	5124	0	141
37	5224	0	141
38	46	0	39
38	104	0	71
38	131	0	74
38	363	0	107
38	733	0	119
38	1248	0	126
38	1930	0	129
38	2002	0	130
38	2266	0	130
38	2280	0	130
38	2290	0	130
38	2812	0	138
38	2824	0	138
38	3452	0	138
38	3788	0	139
38	3800	0	139
38	4100	0	139
38	4732	0	139
38	4824	0	140
38	5068	0	141
38	5080	0	141
38	5228	0	141
38	6664	0	144
39	48	0	40
39	57	0	45
39	109	0	71
39	127	0	73
39	382	0	109
39	471	0	114
39	515	0	115
39	528	0	115
39	712	0	119
39	821	0	120
39	1264	0	126
39	1270	0	126
39	1946	0	129
39	1956	0	129
39	2282	0	130
39	2486	0	136
39	3792	0	139
39	3848	0	139
39	3984	0	139
39	4444	0	139
39	6672	0	144
40	49	0	41
40	113	0	71
40	450	0	113
40	519	0	115
40	1268	0	126
40	1916	0	129
40	1950	0	129
40	4420	0	139
40	4988	0	141
41	51	0	42
41	110	0	71
41	130	0	74
41	365	0	107
41	385	0	109
41	704	0	119
41	730	0	119
41	1258	0	126
41	1936	0	129
41	1940	0	129
41	1964	0	129
41	2506	0	136
41	2830	0	138
41	3816	0	139
41	4092	0	139
41	4400	0	139
41	4996	0	141
41	5216	0	141
41	6676	0	144
42	54	0	43
42	123	0	73
42	126	0	73
42	453	0	114
42	486	0	115
42	516	0	115
42	526	0	115
42	533	0	116
42	822	0	120
42	1276	0	126
42	2272	0	130
42	2514	0	136
42	3812	0	139
42	3820	0	139
42	3976	0	139
42	4016	0	139
42	4456	0	139
42	4980	0	141
42	5052	0	141
42	5120	0	141
42	5152	0	141
42	5164	0	141
42	5900	0	141
43	55	0	44
43	58	0	45
43	445	0	112
43	472	0	114
43	484	0	115
43	506	0	115
43	700	0	119
43	706	0	119
43	731	0	119
43	1236	0	126
43	1982	0	130
43	2000	0	130
43	2256	0	130
43	2292	0	130
43	2520	0	136
43	2798	0	138
43	2820	0	138
43	3464	0	138
43	3824	0	139
43	4372	0	139
43	5220	0	141
43	5912	0	142
43	6712	0	144
44	56	0	45
44	125	0	73
44	367	0	107
44	479	0	115
44	483	0	115
44	517	0	115
44	530	0	116
44	532	0	116
44	702	0	119
44	1888	0	127
44	1918	0	129
44	2024	0	130
44	2268	0	130
44	2490	0	136
44	2494	0	136
44	2808	0	138
44	4356	0	139
44	4412	0	139
44	4848	0	141
44	5004	0	141
44	5112	0	141
44	5232	0	141
44	6680	0	144
45	59	0	46
45	522	0	115
45	811	0	120
45	817	0	120
45	1250	0	126
45	2480	0	136
45	2510	0	136
45	4072	0	139
45	4204	0	139
45	4220	0	139
45	5072	0	141
45	5908	0	141
46	60	0	47
46	180	0	86
46	523	0	115
46	557	0	116
46	728	0	119
46	814	0	120
46	1926	0	129
46	1978	0	130
46	2262	0	130
46	2300	0	130
46	2304	0	131
46	2816	0	138
46	2822	0	138
46	3836	0	139
46	4068	0	139
46	4216	0	139
46	4820	0	139
46	5036	0	141
46	5056	0	141
46	5860	0	141
46	6136	0	144
47	61	0	48
47	92	0	67
47	147	0	79
47	412	0	110
47	465	0	114
47	504	0	115
47	551	0	116
47	563	0	116
47	634	0	119
47	758	0	119
47	966	0	125
47	1186	0	126
47	1294	0	126
47	1474	0	127
47	1536	0	127
47	2354	0	132
47	2358	0	132
47	2548	0	136
47	3616	0	138
47	3752	0	139
47	4816	0	139
47	4860	0	141
47	5888	0	141
47	5944	0	144
47	6204	0	144
47	7072	0	144
48	62	0	49
48	243	0	103
48	633	0	119
48	668	0	119
48	688	0	119
48	735	0	119
48	760	0	119
48	831	0	120
48	833	0	120
48	903	0	122
48	1102	0	126
48	1200	0	126
48	2218	0	130
48	2398	0	135
48	2770	0	138
48	3192	0	138
48	3484	0	138
48	3544	0	138
48	3720	0	138
48	4036	0	139
48	4504	0	139
48	5976	0	144
48	6384	0	144
48	6468	0	144
48	6924	0	144
48	7008	0	144
49	65	0	50
49	623	0	118
49	631	0	119
49	752	0	119
49	941	0	125
49	985	0	126
49	1074	0	126
49	1078	0	126
49	1082	0	126
49	1308	0	126
49	1336	0	126
49	1486	0	127
49	1494	0	127
49	2386	0	135
49	2858	0	138
49	2864	0	138
49	2926	0	138
49	2962	0	138
49	3016	0	138
49	3084	0	138
49	6488	0	144
49	6900	0	144
50	66	0	51
50	327	0	106
50	931	0	123
50	934	0	124
50	936	0	125
50	939	0	125
50	1080	0	126
50	1086	0	126
50	1498	0	127
50	2042	0	130
50	2340	0	132
50	2680	0	136
50	2686	0	136
50	2854	0	138
50	2958	0	138
50	3012	0	138
50	3064	0	138
50	3244	0	138
50	3660	0	138
50	6156	0	144
50	6892	0	144
51	67	0	52
51	624	0	118
51	930	0	123
51	993	0	126
51	1332	0	126
51	1398	0	126
51	1484	0	127
51	2040	0	130
51	2658	0	136
51	3092	0	138
51	6072	0	144
51	6788	0	144
52	68	0	53
52	216	0	97
52	294	0	103
52	317	0	104
52	345	0	107
52	503	0	115
52	992	0	126
52	995	0	126
52	1288	0	126
52	1396	0	126
52	1604	0	127
52	1746	0	127
52	1870	0	127
52	1996	0	130
52	2672	0	136
52	2788	0	138
52	2920	0	138
52	2968	0	138
52	3212	0	138
52	4536	0	139
52	5324	0	141
52	5336	0	141
52	5540	0	141
52	5632	0	141
52	5776	0	141
52	5876	0	141
52	5956	0	144
52	6084	0	144
52	6976	0	144
53	69	0	54
53	392	0	109
53	926	0	123
53	945	0	125
53	987	0	126
53	1228	0	126
53	1344	0	126
53	1390	0	126
53	1402	0	126
53	2052	0	130
53	2742	0	138
53	2766	0	138
53	2842	0	138
53	3020	0	138
53	3372	0	138
53	5436	0	141
53	5444	0	141
53	5556	0	141
53	6852	0	144
54	73	0	55
54	185	0	86
54	275	0	103
54	2090	0	130
54	2128	0	130
54	2538	0	136
54	2586	0	136
54	5480	0	141
54	6328	0	144
55	74	0	56
55	184	0	86
55	236	0	102
55	592	0	116
55	597	0	117
55	618	0	118
55	841	0	120
55	1646	0	127
55	2534	0	136
55	2582	0	136
55	2588	0	136
55	4120	0	139
55	4892	0	141
55	7192	0	144
56	75	0	57
56	181	0	86
56	558	0	116
56	591	0	116
56	893	0	122
56	1424	0	126
56	1644	0	127
56	2934	0	138
56	4116	0	139
56	4680	0	139
56	5464	0	141
56	6128	0	144
57	76	0	58
57	154	0	81
57	157	0	81
57	290	0	103
57	343	0	107
57	555	0	116
57	565	0	116
57	571	0	116
57	655	0	119
57	736	0	119
57	784	0	120
57	1514	0	127
57	1544	0	127
57	1628	0	127
57	1674	0	127
57	1710	0	127
57	1882	0	127
57	2196	0	130
57	2594	0	136
57	2608	0	136
57	2642	0	136
57	2664	0	136
57	2946	0	138
57	3044	0	138
57	3216	0	138
57	4572	0	139
57	4588	0	139
57	5404	0	141
57	5856	0	141
57	5864	0	141
57	5992	0	144
57	6032	0	144
57	6368	0	144
57	7344	0	144
58	77	0	59
58	220	0	99
58	400	0	109
58	616	0	118
58	644	0	119
58	696	0	119
58	855	0	122
58	908	0	122
58	1104	0	126
58	1552	0	127
58	1744	0	127
58	1842	0	127
58	2050	0	130
58	2156	0	130
58	2176	0	130
58	2526	0	136
58	2606	0	136
58	2692	0	136
58	2740	0	138
58	2784	0	138
58	2876	0	138
58	2948	0	138
58	3396	0	138
58	3404	0	138
58	3412	0	138
58	3500	0	138
58	4296	0	139
58	4780	0	139
58	5608	0	141
58	5616	0	141
58	5756	0	141
58	5792	0	141
58	6020	0	144
58	6172	0	144
58	6840	0	144
58	7312	0	144
59	78	0	60
59	322	0	105
59	391	0	109
59	418	0	110
59	542	0	116
59	578	0	116
59	648	0	119
59	689	0	119
59	725	0	119
59	777	0	119
59	808	0	120
59	850	0	121
59	900	0	122
59	927	0	123
59	929	0	123
59	989	0	126
59	1100	0	126
59	1120	0	126
59	1430	0	126
59	1434	0	126
59	1576	0	127
59	1584	0	127
59	2164	0	130
59	2170	0	130
59	2208	0	130
59	2230	0	130
59	2452	0	135
59	2570	0	136
59	2690	0	136
59	2750	0	138
59	2762	0	138
59	2772	0	138
59	2924	0	138
59	4776	0	139
59	6004	0	144
59	6164	0	144
59	6380	0	144
59	6560	0	144
59	6612	0	144
59	6628	0	144
59	6776	0	144
59	6784	0	144
59	6800	0	144
59	6856	0	144
60	81	0	61
60	134	0	75
60	300	0	103
60	331	0	106
60	338	0	107
60	355	0	107
60	625	0	118
60	776	0	119
60	829	0	120
60	863	0	122
60	1008	0	126
60	1138	0	126
60	1164	0	126
60	1546	0	127
60	1586	0	127
60	1596	0	127
60	1774	0	127
60	1848	0	127
60	1876	0	127
60	2394	0	135
60	2662	0	136
60	2694	0	136
60	2760	0	138
60	2768	0	138
60	2850	0	138
60	2930	0	138
60	3056	0	138
60	3196	0	138
60	3364	0	138
60	4600	0	139
60	4936	0	141
60	5420	0	141
60	5808	0	141
60	6076	0	144
60	6148	0	144
60	6192	0	144
60	6292	0	144
60	6444	0	144
61	82	0	62
61	164	0	82
61	210	0	97
61	249	0	103
61	351	0	107
61	491	0	115
61	497	0	115
61	538	0	116
61	714	0	119
61	803	0	120
61	898	0	122
61	950	0	125
61	1126	0	126
61	1182	0	126
61	1814	0	127
61	2060	0	130
61	2406	0	135
61	2458	0	135
61	2786	0	138
61	3300	0	138
61	4552	0	139
61	5588	0	141
61	6308	0	144
61	6932	0	144
62	84	0	63
62	94	0	67
62	135	0	75
62	246	0	103
62	352	0	107
62	424	0	110
62	458	0	114
62	548	0	116
62	569	0	116
62	581	0	116
62	617	0	118
62	619	0	118
62	645	0	119
62	738	0	119
62	767	0	119
62	886	0	122
62	894	0	122
62	917	0	122
62	1144	0	126
62	1156	0	126
62	1210	0	126
62	1354	0	126
62	1986	0	130
62	2036	0	130
62	2068	0	130
62	2096	0	130
62	2132	0	130
62	2226	0	130
62	2396	0	135
62	2426	0	135
62	2540	0	136
62	2602	0	136
62	2932	0	138
62	2992	0	138
62	3380	0	138
62	3592	0	138
62	3692	0	138
62	4480	0	139
62	4672	0	139
62	4948	0	141
62	5356	0	141
62	5576	0	141
62	6108	0	144
62	6116	0	144
62	6644	0	144
62	6872	0	144
62	7184	0	144
63	87	0	64
63	93	0	67
63	158	0	81
63	307	0	104
63	330	0	106
63	413	0	110
63	640	0	119
63	680	0	119
63	828	0	120
63	844	0	121
63	957	0	125
63	1324	0	126
63	1554	0	127
63	1630	0	127
63	1636	0	127
63	1734	0	127
63	2136	0	130
63	2400	0	135
63	2546	0	136
63	2726	0	138
63	2976	0	138
63	3036	0	138
63	3228	0	138
63	3292	0	138
63	3712	0	138
63	3896	0	139
63	4136	0	139
63	4152	0	139
63	4492	0	139
63	4620	0	139
63	4792	0	139
63	5372	0	141
63	5392	0	141
63	5656	0	141
63	5732	0	141
63	6048	0	144
63	6636	0	144
63	6808	0	144
63	6860	0	144
63	7136	0	144
64	88	0	65
64	156	0	81
64	166	0	82
64	215	0	97
64	260	0	103
64	283	0	103
64	289	0	103
64	295	0	103
64	342	0	107
64	430	0	110
64	560	0	116
64	582	0	116
64	687	0	119
64	899	0	122
64	1002	0	126
64	1130	0	126
64	1384	0	126
64	1564	0	127
64	1632	0	127
64	1812	0	127
64	2174	0	130
64	2322	0	132
64	2712	0	136
64	2986	0	138
64	3296	0	138
64	3436	0	138
64	3536	0	138
64	3600	0	138
64	4668	0	139
64	5504	0	141
64	5572	0	141
64	5764	0	141
64	5872	0	141
64	5940	0	144
64	6388	0	144
65	90	0	66
65	169	0	82
65	214	0	97
65	270	0	103
65	321	0	105
65	347	0	107
65	429	0	110
65	434	0	110
65	488	0	115
65	576	0	116
65	614	0	118
65	635	0	119
65	649	0	119
65	755	0	119
65	1184	0	126
65	1620	0	127
65	1836	0	127
65	2066	0	130
65	2138	0	130
65	2366	0	132
65	2714	0	136
65	2912	0	138
65	3444	0	138
65	3528	0	138
65	4108	0	139
65	4708	0	139
65	5252	0	141
65	5412	0	141
65	5700	0	141
65	6044	0	144
65	6088	0	144
65	6464	0	144
65	7048	0	144
66	91	0	67
66	410	0	110
66	466	0	114
66	547	0	116
66	574	0	116
66	651	0	119
66	661	0	119
66	838	0	120
66	1028	0	126
66	1158	0	126
66	1676	0	127
66	1684	0	127
66	1780	0	127
66	2200	0	130
66	3736	0	138
66	4112	0	139
66	4144	0	139
66	4628	0	139
66	5644	0	141
66	5672	0	141
66	6036	0	144
66	6200	0	144
66	6264	0	144
66	7032	0	144
66	7056	0	144
66	7096	0	144
66	7168	0	144
67	95	0	68
67	564	0	116
67	662	0	119
67	794	0	120
67	839	0	120
67	870	0	122
67	958	0	125
67	1044	0	126
67	1146	0	126
67	1152	0	126
67	1362	0	126
67	1416	0	126
67	1804	0	127
67	1880	0	127
67	2220	0	130
67	2424	0	135
67	2430	0	135
67	4564	0	139
67	4800	0	139
67	5964	0	144
68	96	0	69
68	228	0	100
68	274	0	103
68	593	0	116
68	606	0	118
68	1168	0	126
68	1422	0	126
68	2130	0	130
68	2184	0	130
68	2316	0	132
68	2436	0	135
68	2578	0	136
68	2584	0	136
68	2590	0	136
68	5292	0	141
68	6124	0	144
69	97	0	70
69	168	0	82
69	174	0	84
69	234	0	102
69	284	0	103
69	291	0	103
69	549	0	116
69	659	0	119
69	677	0	119
69	915	0	122
69	920	0	122
69	967	0	125
69	990	0	126
69	1038	0	126
69	1196	0	126
69	1438	0	126
69	1506	0	127
69	1656	0	127
69	1810	0	127
69	2204	0	130
69	2462	0	135
69	2524	0	136
69	2618	0	136
69	2738	0	138
69	2974	0	138
69	2982	0	138
69	3432	0	138
69	3532	0	138
69	3596	0	138
69	3620	0	138
69	4624	0	139
69	4796	0	139
69	5600	0	141
69	5648	0	141
69	5796	0	141
69	5832	0	141
69	6012	0	144
69	6244	0	144
69	6256	0	144
69	6316	0	144
69	6336	0	144
69	6348	0	144
69	6592	0	144
69	7112	0	144
70	100	0	71
70	121	0	72
70	375	0	108
70	485	0	115
70	732	0	119
70	815	0	120
70	818	0	120
70	2294	0	130
70	2478	0	136
70	2496	0	136
70	2516	0	136
70	3840	0	139
70	4076	0	139
70	4360	0	139
70	4376	0	139
70	4388	0	139
70	4448	0	139
70	4844	0	141
70	5176	0	141
70	5716	0	141
70	5904	0	141
71	119	0	72
71	381	0	109
71	446	0	112
71	705	0	119
71	1278	0	126
71	2276	0	130
71	4008	0	139
71	5000	0	141
71	6684	0	144
71	6708	0	144
72	122	0	73
72	489	0	115
72	534	0	116
72	553	0	116
72	583	0	116
72	727	0	119
72	757	0	119
72	765	0	119
72	836	0	120
72	1216	0	126
72	2214	0	130
72	2356	0	132
72	2456	0	135
72	2522	0	136
72	2796	0	138
72	2984	0	138
72	3940	0	139
72	3972	0	139
72	4020	0	139
72	4524	0	139
72	4724	0	139
72	5016	0	141
72	5048	0	141
72	5160	0	141
72	6140	0	144
72	6460	0	144
72	6956	0	144
72	7064	0	144
73	128	0	74
73	444	0	112
73	518	0	115
73	701	0	119
73	1260	0	126
73	1954	0	129
73	2488	0	136
73	4084	0	139
74	133	0	75
74	137	0	75
74	155	0	81
74	207	0	97
74	256	0	103
74	296	0	103
74	584	0	116
74	620	0	118
74	666	0	119
74	681	0	119
74	684	0	119
74	786	0	120
74	800	0	120
74	913	0	122
74	976	0	125
74	999	0	126
74	1208	0	126
74	1538	0	127
74	1608	0	127
74	1792	0	127
74	2212	0	130
74	2242	0	130
74	2716	0	137
74	2980	0	138
74	3040	0	138
74	3148	0	138
74	3580	0	138
74	3936	0	139
74	3956	0	139
74	4308	0	139
74	4912	0	141
74	4944	0	141
74	5364	0	141
74	5628	0	141
74	5660	0	141
74	5728	0	141
74	5812	0	141
74	5996	0	144
74	6104	0	144
74	6288	0	144
74	6412	0	144
74	6476	0	144
74	6816	0	144
74	7328	0	144
75	138	0	76
75	144	0	77
75	176	0	85
75	292	0	103
75	490	0	115
75	566	0	116
75	596	0	117
75	694	0	119
75	749	0	119
75	832	0	120
75	972	0	125
75	1118	0	126
75	1292	0	126
75	1454	0	127
75	1462	0	127
75	1470	0	127
75	1476	0	127
75	1624	0	127
75	1690	0	127
75	1790	0	127
75	2198	0	130
75	2348	0	132
75	2792	0	138
75	2880	0	138
75	2938	0	138
75	3032	0	138
75	3180	0	138
75	3324	0	138
75	3388	0	138
75	3924	0	139
75	4140	0	139
75	4304	0	139
75	4540	0	139
75	4808	0	139
75	5820	0	141
75	5880	0	141
75	6312	0	144
75	6472	0	144
75	6596	0	144
75	6732	0	144
75	6920	0	144
76	141	0	77
76	252	0	103
76	257	0	103
76	259	0	103
76	277	0	103
76	354	0	107
76	636	0	119
76	673	0	119
76	685	0	119
76	761	0	119
76	774	0	119
76	1060	0	126
76	1230	0	126
76	1540	0	127
76	1610	0	127
76	1750	0	127
76	1868	0	127
76	2058	0	130
76	2604	0	136
76	2844	0	138
76	3128	0	138
76	3420	0	138
76	3508	0	138
76	3568	0	138
76	3588	0	138
76	4288	0	139
76	4520	0	139
76	4704	0	139
76	5320	0	141
76	5568	0	141
76	5680	0	141
76	5768	0	141
76	5840	0	141
76	6268	0	144
76	6304	0	144
76	6572	0	144
76	6796	0	144
76	6820	0	144
76	6864	0	144
77	145	0	78
77	273	0	103
77	279	0	103
77	415	0	110
77	500	0	115
77	642	0	119
77	843	0	121
77	869	0	122
77	916	0	122
77	974	0	125
77	1172	0	126
77	1686	0	127
77	2180	0	130
77	2314	0	132
77	2434	0	135
77	2592	0	136
77	2596	0	136
77	2722	0	138
77	3384	0	138
77	3636	0	138
77	4636	0	139
77	4748	0	139
77	4896	0	141
77	4904	0	141
77	5476	0	141
77	5492	0	141
77	7104	0	144
78	146	0	79
78	173	0	84
78	235	0	102
78	285	0	103
78	641	0	119
78	654	0	119
78	737	0	119
78	867	0	122
78	892	0	122
78	960	0	125
78	969	0	125
78	1176	0	126
78	1212	0	126
78	1524	0	127
78	1652	0	127
78	1786	0	127
78	1808	0	127
78	2108	0	130
78	2420	0	135
78	2708	0	136
78	3176	0	138
78	3696	0	138
78	3732	0	138
78	4160	0	139
78	4168	0	139
78	4320	0	139
78	4336	0	139
78	5308	0	141
78	5800	0	141
79	148	0	80
79	254	0	103
79	394	0	109
79	396	0	109
79	421	0	110
79	425	0	110
79	427	0	110
79	431	0	110
79	561	0	116
79	647	0	119
79	717	0	119
79	1058	0	126
79	1136	0	126
79	1198	0	126
79	1366	0	126
79	1378	0	126
79	1442	0	126
79	1516	0	127
79	1558	0	127
79	1614	0	127
79	1694	0	127
79	1736	0	127
79	2194	0	130
79	2206	0	130
79	2246	0	130
79	2364	0	132
79	2446	0	135
79	2566	0	136
79	2600	0	136
79	2626	0	136
79	2838	0	138
79	3288	0	138
79	3308	0	138
79	3336	0	138
79	4024	0	139
79	4496	0	139
79	4864	0	141
79	4940	0	141
79	5584	0	141
79	6024	0	144
79	6100	0	144
79	6408	0	144
79	6528	0	144
79	6604	0	144
79	6648	0	144
80	152	0	81
80	328	0	106
80	588	0	116
80	632	0	119
80	637	0	119
80	674	0	119
80	683	0	119
80	801	0	120
80	944	0	125
80	996	0	126
80	1056	0	126
80	1866	0	127
80	2044	0	130
80	2344	0	132
80	2782	0	138
80	2872	0	138
80	3104	0	138
80	3240	0	138
80	3276	0	138
80	3884	0	139
80	4928	0	141
80	6420	0	144
80	6848	0	144
81	159	0	82
81	329	0	106
81	333	0	106
81	336	0	107
81	398	0	109
81	408	0	110
81	628	0	118
81	781	0	120
81	854	0	122
81	924	0	123
81	938	0	125
81	982	0	126
81	1022	0	126
81	1500	0	127
81	2056	0	130
81	2326	0	132
81	2558	0	136
81	2656	0	136
81	2688	0	136
81	2748	0	138
81	2848	0	138
81	2852	0	138
81	2856	0	138
81	2868	0	138
81	2874	0	138
81	3004	0	138
81	3068	0	138
81	3656	0	138
81	3684	0	138
81	5560	0	141
81	5736	0	141
81	5784	0	141
81	6516	0	144
81	6780	0	144
81	6980	0	144
82	171	0	83
82	182	0	86
82	226	0	99
82	494	0	115
82	605	0	118
82	797	0	120
82	910	0	122
82	1026	0	126
82	1150	0	126
82	1290	0	126
82	1420	0	126
82	1520	0	127
82	2186	0	130
82	2576	0	136
82	3632	0	138
82	3748	0	139
82	4176	0	139
82	4188	0	139
82	4324	0	139
82	5284	0	141
82	6352	0	144
82	6996	0	144
83	172	0	84
83	183	0	86
83	607	0	118
83	1528	0	127
83	2308	0	131
83	2312	0	132
83	2412	0	135
83	2432	0	135
83	3704	0	138
83	4164	0	139
83	4212	0	139
83	5460	0	141
84	175	0	85
84	261	0	103
84	309	0	104
84	650	0	119
84	740	0	119
84	763	0	119
84	793	0	120
84	883	0	122
84	921	0	122
84	1178	0	126
84	1296	0	126
84	1566	0	127
84	1714	0	127
84	2232	0	130
84	2616	0	136
84	2620	0	136
84	2730	0	138
84	2970	0	138
84	3312	0	138
84	3472	0	138
84	3756	0	139
84	4340	0	139
84	4472	0	139
84	4608	0	139
84	4664	0	139
84	4696	0	139
84	5408	0	141
84	6376	0	144
84	7320	0	144
85	179	0	86
85	968	0	125
85	1148	0	126
85	1174	0	126
85	1648	0	127
85	1688	0	127
85	1806	0	127
85	1822	0	127
85	2098	0	130
85	4124	0	139
85	4584	0	139
85	4676	0	139
85	4888	0	141
85	5032	0	141
85	5040	0	141
85	5312	0	141
86	186	0	87
86	196	0	93
86	198	0	93
86	599	0	117
86	602	0	118
86	881	0	122
86	1756	0	127
86	2074	0	130
86	2080	0	130
86	2084	0	130
86	2120	0	130
86	2126	0	130
86	2996	0	138
86	3000	0	138
86	7272	0	144
87	187	0	88
87	192	0	91
87	2118	0	130
88	188	0	89
88	876	0	122
88	880	0	122
88	1762	0	127
88	2078	0	130
88	7240	0	144
89	189	0	90
89	191	0	91
89	199	0	93
89	878	0	122
89	2082	0	130
89	2124	0	130
89	7264	0	144
90	190	0	91
90	195	0	93
90	197	0	93
90	873	0	122
90	1758	0	127
90	2116	0	130
90	7232	0	144
90	7248	0	144
91	193	0	92
91	2088	0	130
91	2114	0	130
91	2122	0	130
92	194	0	93
92	875	0	122
92	879	0	122
92	1760	0	127
92	7224	0	144
92	7256	0	144
93	200	0	94
93	600	0	117
93	872	0	122
93	1348	0	126
93	1764	0	127
93	2076	0	130
93	2086	0	130
93	2092	0	130
93	7216	0	144
94	201	0	95
94	237	0	102
94	598	0	117
94	871	0	122
94	1754	0	127
94	2072	0	130
94	2112	0	130
94	2416	0	135
94	7208	0	144
95	203	0	96
95	253	0	103
95	264	0	103
95	301	0	103
95	373	0	108
95	417	0	110
95	426	0	110
95	536	0	116
95	720	0	119
95	747	0	119
95	766	0	119
95	809	0	120
95	1000	0	126
95	1460	0	127
95	1606	0	127
95	1634	0	127
95	1638	0	127
95	1658	0	127
95	2404	0	135
95	2630	0	136
95	2950	0	138
95	3320	0	138
95	3540	0	138
95	3760	0	139
95	4508	0	139
95	4812	0	139
95	5596	0	141
95	5652	0	141
95	5724	0	141
95	5848	0	141
95	5936	0	144
95	6252	0	144
95	6416	0	144
95	6720	0	144
96	204	0	97
96	206	0	97
96	222	0	99
96	224	0	99
96	288	0	103
96	349	0	107
96	501	0	115
96	552	0	116
96	595	0	117
96	912	0	122
96	955	0	125
96	964	0	125
96	1012	0	126
96	1032	0	126
96	1322	0	126
96	1328	0	126
96	1352	0	126
96	1680	0	127
96	2100	0	130
96	2150	0	130
96	2210	0	130
96	2402	0	135
96	2460	0	135
96	2884	0	138
96	3136	0	138
96	3328	0	138
96	3640	0	138
96	3916	0	139
96	3948	0	139
96	4268	0	139
96	4300	0	139
96	4316	0	139
96	4576	0	139
96	4616	0	139
96	5396	0	141
96	5536	0	141
96	6196	0	144
96	6208	0	144
96	6928	0	144
97	217	0	98
97	629	0	118
97	742	0	119
97	744	0	119
97	751	0	119
97	978	0	125
97	980	0	126
97	1066	0	126
97	1404	0	126
97	1862	0	127
97	2144	0	130
97	2450	0	135
97	2674	0	136
97	2756	0	138
97	2764	0	138
97	3124	0	138
97	3648	0	138
97	4932	0	141
97	6052	0	144
97	6064	0	144
97	6168	0	144
97	6428	0	144
97	6880	0	144
97	6912	0	144
97	6984	0	144
97	7016	0	144
97	7304	0	144
98	218	0	99
98	335	0	107
98	622	0	118
98	675	0	119
98	691	0	119
98	847	0	121
98	851	0	121
98	986	0	126
98	1106	0	126
98	1340	0	126
98	1368	0	126
98	1548	0	127
98	1768	0	127
98	2240	0	130
98	2660	0	136
98	2916	0	138
98	3168	0	138
98	3208	0	138
98	3316	0	138
98	3368	0	138
98	3424	0	138
98	4916	0	141
98	5548	0	141
98	5620	0	141
98	6056	0	144
98	6300	0	144
99	227	0	100
99	840	0	120
99	918	0	122
99	2070	0	130
99	2182	0	130
99	2422	0	135
99	2668	0	136
99	3700	0	138
99	4332	0	139
100	229	0	101
100	660	0	119
100	866	0	122
100	1662	0	127
100	1678	0	127
100	2106	0	130
100	2428	0	135
100	2466	0	135
100	3548	0	138
100	3560	0	138
100	3744	0	138
100	4180	0	139
100	4224	0	139
100	4640	0	139
100	4688	0	139
100	4872	0	141
100	4880	0	141
100	5288	0	141
100	5380	0	141
100	5980	0	144
100	6620	0	144
100	7120	0	144
101	231	0	102
101	303	0	103
101	348	0	107
101	372	0	108
101	570	0	116
101	572	0	116
101	722	0	119
101	724	0	119
101	789	0	120
101	826	0	120
101	907	0	122
101	1054	0	126
101	1062	0	126
101	1122	0	126
101	1358	0	126
101	1376	0	126
101	1412	0	126
101	1534	0	127
101	1726	0	127
101	2158	0	130
101	2252	0	130
101	2346	0	132
101	2528	0	136
101	2648	0	136
101	2698	0	136
101	2914	0	138
101	2940	0	138
101	3280	0	138
101	3344	0	138
101	3356	0	138
101	3968	0	139
101	5344	0	141
101	6180	0	144
101	6188	0	144
102	241	0	103
102	298	0	103
102	416	0	110
102	643	0	119
102	690	0	119
102	718	0	119
102	897	0	122
102	905	0	122
102	911	0	122
102	961	0	125
102	975	0	125
102	1098	0	126
102	1132	0	126
102	1382	0	126
102	1562	0	127
102	1616	0	127
102	1640	0	127
102	1668	0	127
102	1850	0	127
102	2368	0	132
102	2910	0	138
102	3144	0	138
102	3516	0	138
102	4040	0	139
102	4148	0	139
102	4484	0	139
102	5472	0	141
102	5952	0	144
102	5968	0	144
102	6040	0	144
102	6600	0	144
103	305	0	104
103	310	0	104
103	406	0	109
103	461	0	114
103	603	0	118
103	663	0	119
103	671	0	119
103	676	0	119
103	857	0	122
103	1024	0	126
103	1040	0	126
103	1342	0	126
103	1752	0	127
103	1856	0	127
103	2922	0	138
103	3644	0	138
103	3688	0	138
103	4032	0	139
103	4252	0	139
103	4280	0	139
103	5260	0	141
103	5528	0	141
103	5640	0	141
103	5828	0	141
103	6016	0	144
103	6112	0	144
103	6236	0	144
103	6332	0	144
103	7000	0	144
103	7296	0	144
104	318	0	105
104	332	0	106
104	337	0	107
104	340	0	107
104	346	0	107
104	395	0	109
104	404	0	109
104	409	0	110
104	589	0	116
104	638	0	119
104	692	0	119
104	805	0	120
104	1116	0	126
104	1220	0	126
104	1512	0	127
104	1612	0	127
104	1666	0	127
104	1706	0	127
104	1724	0	127
104	1782	0	127
104	1858	0	127
104	1988	0	130
104	2702	0	136
104	2754	0	138
104	3220	0	138
104	3348	0	138
104	3408	0	138
104	3716	0	138
104	4244	0	139
104	4660	0	139
104	5332	0	141
104	6008	0	144
104	6548	0	144
104	6640	0	144
104	6772	0	144
105	326	0	106
105	779	0	120
105	946	0	125
105	1304	0	126
105	1316	0	126
105	1334	0	126
105	1338	0	126
105	1480	0	127
105	2342	0	132
105	2682	0	136
105	2860	0	138
105	2870	0	138
105	2956	0	138
105	2964	0	138
105	3060	0	138
105	6068	0	144
105	6508	0	144
106	334	0	107
106	937	0	125
106	1068	0	126
106	1084	0	126
106	1314	0	126
106	1502	0	127
106	2046	0	130
106	2054	0	130
106	2676	0	136
106	3088	0	138
106	3108	0	138
106	3252	0	138
106	3272	0	138
106	3676	0	138
106	5744	0	141
106	6432	0	144
107	368	0	108
107	383	0	109
107	451	0	113
107	477	0	115
107	507	0	115
107	511	0	115
107	520	0	115
107	820	0	120
107	1892	0	127
107	1942	0	129
107	2006	0	130
107	2260	0	130
107	2482	0	136
107	2504	0	136
107	2828	0	138
107	3784	0	139
107	3992	0	139
107	5084	0	141
107	5100	0	141
108	377	0	109
108	708	0	119
108	1908	0	129
108	5188	0	141
109	407	0	110
109	940	0	125
109	994	0	126
109	1108	0	126
109	1346	0	126
109	1482	0	127
109	1766	0	127
109	2168	0	130
109	2894	0	138
109	2904	0	138
109	3264	0	138
109	3668	0	138
109	4920	0	141
109	5268	0	141
109	5552	0	141
109	6504	0	144
110	442	0	111
110	470	0	114
110	508	0	115
110	699	0	119
110	711	0	119
110	1242	0	126
110	1934	0	129
110	1966	0	130
110	1970	0	130
110	2492	0	136
110	2512	0	136
110	3980	0	139
110	3996	0	139
110	4056	0	139
110	4408	0	139
110	4424	0	139
110	4436	0	139
110	5116	0	141
110	5148	0	141
110	6668	0	144
111	443	0	112
111	448	0	112
111	1896	0	127
111	1920	0	129
111	3856	0	139
111	3988	0	139
111	4396	0	139
111	4992	0	141
111	6700	0	144
111	6748	0	144
112	449	0	113
112	1952	0	129
112	5192	0	141
112	6696	0	144
113	452	0	114
113	480	0	115
113	1192	0	126
113	1254	0	126
113	1962	0	129
113	2008	0	130
113	2298	0	130
113	2470	0	135
113	2508	0	136
113	2518	0	136
113	2806	0	138
113	2834	0	138
113	3456	0	138
113	3776	0	139
113	4368	0	139
113	4452	0	139
113	5168	0	141
113	6656	0	144
113	6740	0	144
114	476	0	115
114	521	0	115
114	812	0	120
115	529	0	116
115	539	0	116
115	713	0	119
115	756	0	119
115	1234	0	126
115	2062	0	130
115	2254	0	130
115	5008	0	141
115	5896	0	141
115	6184	0	144
116	594	0	117
116	791	0	120
116	965	0	125
116	1154	0	126
116	1170	0	126
116	1788	0	127
116	2104	0	130
116	2414	0	135
116	2464	0	135
116	2532	0	136
116	2580	0	136
116	4044	0	139
116	4196	0	139
116	5028	0	141
116	6216	0	144
116	6228	0	144
117	601	0	118
117	874	0	122
117	877	0	122
117	2998	0	138
118	630	0	119
118	1088	0	126
118	1704	0	127
118	2142	0	130
118	2146	0	130
118	2154	0	130
118	2390	0	135
118	2544	0	136
118	2556	0	136
118	2744	0	138
118	2866	0	138
118	3008	0	138
118	3100	0	138
118	3120	0	138
118	3680	0	138
118	3892	0	139
118	5440	0	141
118	6080	0	144
118	6296	0	144
118	6484	0	144
118	6844	0	144
119	778	0	120
119	780	0	120
119	852	0	121
119	943	0	125
119	1110	0	126
119	1394	0	126
119	1872	0	127
119	2238	0	130
119	2746	0	138
119	2892	0	138
119	2902	0	138
119	3072	0	138
119	3080	0	138
119	3112	0	138
119	3664	0	138
119	5424	0	141
119	5788	0	141
119	6160	0	144
119	6512	0	144
119	6564	0	144
120	842	0	121
120	1418	0	126
120	1526	0	127
120	1650	0	127
120	2110	0	130
120	4328	0	139
120	5296	0	141
121	853	0	122
121	933	0	124
121	942	0	125
121	1072	0	126
121	1076	0	126
121	1310	0	126
121	1496	0	127
121	2328	0	132
121	2332	0	132
121	2384	0	135
121	2684	0	136
121	2862	0	138
121	3268	0	138
122	923	0	123
122	1300	0	126
122	1306	0	126
122	1392	0	126
122	1400	0	126
122	1874	0	127
122	2048	0	130
122	2334	0	132
122	2338	0	132
122	2388	0	135
122	2654	0	136
122	2774	0	138
122	2780	0	138
122	2900	0	138
122	2966	0	138
122	3256	0	138
122	3672	0	138
122	5428	0	141
122	5752	0	141
122	6152	0	144
122	6440	0	144
122	6556	0	144
122	6904	0	144
123	932	0	124
123	1070	0	126
123	1312	0	126
123	1490	0	127
123	2330	0	132
123	2336	0	132
123	2374	0	132
123	2382	0	135
123	2960	0	138
123	5748	0	141
123	6492	0	144
123	6888	0	144
123	6896	0	144
124	935	0	125
124	984	0	126
124	1488	0	127
124	1492	0	127
124	2372	0	132
124	2678	0	136
124	3260	0	138
124	5432	0	141
124	6436	0	144
124	6496	0	144
125	979	0	126
125	983	0	126
125	3096	0	138
125	3116	0	138
125	3248	0	138
125	3652	0	138
125	3888	0	139
125	4924	0	141
125	6060	0	144
125	6424	0	144
125	6500	0	144
125	6884	0	144
126	1898	0	128
126	1906	0	129
126	5184	0	141
127	1900	0	129
127	1904	0	129
128	2302	0	131
128	2306	0	131
128	3552	0	138
128	4200	0	139
128	5304	0	141
129	2310	0	132
129	3556	0	138
129	4900	0	141
129	5300	0	141
130	2376	0	133
131	2378	0	134
132	2380	0	135
133	2476	0	136
134	2846	0	138
134	5564	0	141
134	6828	0	144
134	6836	0	144
135	6832	0	144

