file 65588 1756984392                                           
version 3
run General-13-20250904-14:13:11-15188
attr configname General
attr datetime 20250904-14:13:11
attr datetimef 20250904-141311
attr experiment General
attr inifile omnetpp.ini
attr iterationvars ""
attr iterationvarsd ""
attr iterationvarsf ""
attr measurement ""
attr network TaxiNetwork
attr processid 15188
attr repetition 13
attr replication #13
attr resultdir results
attr runnumber 13
attr seedset 13
config network TaxiNetwork
config seed-set 13
config num-rngs 1
config sim-time-limit 10s
config repeat 500
config *.numWalkers 1
config *.enableDuplication true
config *.rc 700
config **.node[0].xCor 2933
config **.node[0].yCor 2747
config **.node[1].xCor 2919
config **.node[1].yCor 2817
config **.node[2].xCor 2910
config **.node[2].yCor 2861
config **.node[3].xCor 2429
config **.node[3].yCor 2851
config **.node[4].xCor 2908
config **.node[4].yCor 2714
config **.node[5].xCor 2606
config **.node[5].yCor 2722
config **.node[6].xCor 2575
config **.node[6].yCor 2753
config **.node[7].xCor 2654
config **.node[7].yCor 2513
config **.node[8].xCor 2773
config **.node[8].yCor 2580
config **.node[9].xCor 3043
config **.node[9].yCor 2780
config **.node[10].xCor 3020
config **.node[10].yCor 2813
config **.node[11].xCor 2599
config **.node[11].yCor 2300
config **.node[12].xCor 2917
config **.node[12].yCor 2698
config **.node[13].xCor 2625
config **.node[13].yCor 2641
config **.node[14].xCor 2604
config **.node[14].yCor 2790
config **.node[15].xCor 2786
config **.node[15].yCor 3082
config **.node[16].xCor 2603
config **.node[16].yCor 2802
config **.node[17].xCor 2637
config **.node[17].yCor 2869
config **.node[18].xCor 2675
config **.node[18].yCor 2955
config **.node[19].xCor 2845
config **.node[19].yCor 2937
config **.node[20].xCor 2860
config **.node[20].yCor 2888
config **.node[21].xCor 2843
config **.node[21].yCor 4158
config **.node[22].xCor 2852
config **.node[22].yCor 4017
config **.node[23].xCor 2892
config **.node[23].yCor 4961
config **.node[24].xCor 2313
config **.node[24].yCor 3993
config **.node[25].xCor 2891
config **.node[25].yCor 4959
config **.node[26].xCor 2370
config **.node[26].yCor 4050
config **.node[27].xCor 2788
config **.node[27].yCor 3958
config **.node[28].xCor 2819
config **.node[28].yCor 4428
config **.node[29].xCor 2790
config **.node[29].yCor 3761
config **.node[30].xCor 2809
config **.node[30].yCor 2908
config **.node[31].xCor 2919
config **.node[31].yCor 3575
config **.node[32].xCor 2946
config **.node[32].yCor 3466
config **.node[33].xCor 2911
config **.node[33].yCor 3453
config **.node[34].xCor 2370
config **.node[34].yCor 3656
config **.node[35].xCor 2438
config **.node[35].yCor 3738
config **.node[36].xCor 2737
config **.node[36].yCor 3570
config **.node[37].xCor 2921
config **.node[37].yCor 3698
config **.node[38].xCor 2907
config **.node[38].yCor 5197
config **.node[39].xCor 2860
config **.node[39].yCor 3852
config **.node[40].xCor 2927
config **.node[40].yCor 3684
config **.node[41].xCor 3023
config **.node[41].yCor 5313
config **.node[42].xCor 3220
config **.node[42].yCor 5811
config **.node[43].xCor 3432
config **.node[43].yCor 5715
config **.node[44].xCor 2754
config **.node[44].yCor 2463
config **.node[45].xCor 2646
config **.node[45].yCor 2673
config **.node[46].xCor 3051
config **.node[46].yCor 2792
config **.node[47].xCor 1666
config **.node[47].yCor 3697
config **.node[48].xCor 1662
config **.node[48].yCor 3694
config **.node[49].xCor 1664
config **.node[49].yCor 3667
config **.node[50].xCor 1660
config **.node[50].yCor 3664
config **.node[51].xCor 1710
config **.node[51].yCor 3573
config **.node[52].xCor 2082
config **.node[52].yCor 2650
config **.node[53].xCor 2086
config **.node[53].yCor 2657
config **.node[54].xCor 2257
config **.node[54].yCor 3232
config **.node[55].xCor 2258
config **.node[55].yCor 3225
config **.node[56].xCor 1926
config **.node[56].yCor 2570
config **.node[57].xCor 1926
config **.node[57].yCor 2576
config **.node[58].xCor 2104
config **.node[58].yCor 1758
config **.node[59].xCor 1957
config **.node[59].yCor 1826
config **.node[60].xCor 3473
config **.node[60].yCor 1523
config **.node[61].xCor 3335
config **.node[61].yCor 1726
config **.node[62].xCor 3478
config **.node[62].yCor 1517
config **.node[63].xCor 3386
config **.node[63].yCor 2119
config **.node[64].xCor 3474
config **.node[64].yCor 1762
config **.node[65].xCor 3797
config **.node[65].yCor 2099
config **.node[66].xCor 3642
config **.node[66].yCor 2136
config **.node[67].xCor 3481
config **.node[67].yCor 2334
config **.node[68].xCor 3088
config **.node[68].yCor 1505
config **.node[69].xCor 3037
config **.node[69].yCor 1693
config **.node[70].xCor 3026
config **.node[70].yCor 1700
config **.node[71].xCor 3019
config **.node[71].yCor 669
config **.node[72].xCor 3513
config **.node[72].yCor 1358
config **.node[73].xCor 3545
config **.node[73].yCor 1230
config **.node[74].xCor 4228
config **.node[74].yCor 4220
config **.node[75].xCor 3379
config **.node[75].yCor 1207
config **.node[76].xCor 3596
config **.node[76].yCor 963
config **.node[77].xCor 3637
config **.node[77].yCor 1188
config **.node[78].xCor 3759
config **.node[78].yCor 1030
config **.node[79].xCor 2918
config **.node[79].yCor 1455
config **.node[80].xCor 2711
config **.node[80].yCor 1297
config **.node[81].xCor 439
config **.node[81].yCor 1623
config **.node[82].xCor 2857
config **.node[82].yCor 3581
config **.node[83].xCor 2858
config **.node[83].yCor 3584
config **.node[84].xCor 2999
config **.node[84].yCor 2636
config **.node[85].xCor 2905
config **.node[85].yCor 2778
config **.node[86].xCor 2653
config **.node[86].yCor 2845
config **.node[87].xCor 2864
config **.node[87].yCor 2836
config **.node[88].xCor 2426
config **.node[88].yCor 2892
config **.node[89].xCor 2964
config **.node[89].yCor 2804
config **.node[90].xCor 2586
config **.node[90].yCor 3135
config **.node[91].xCor 2864
config **.node[91].yCor 2980
config **.node[92].xCor 2527
config **.node[92].yCor 3219
config **.node[93].xCor 2863
config **.node[93].yCor 3142
config **.node[94].xCor 2485
config **.node[94].yCor 3269
config **.node[95].xCor 2653
config **.node[95].yCor 1065
config **.node[96].xCor 4062
config **.node[96].yCor 400
config **.node[97].xCor 5762
config **.node[97].yCor 3023
config **.node[98].xCor 1414
config **.node[98].yCor 3461
config **.node[99].xCor 2911
config **.node[99].yCor 1737
config **.node[100].xCor 2595
config **.node[100].yCor 2299
config **.node[101].xCor 2702
config **.node[101].yCor 3419
config **.node[102].xCor 2813
config **.node[102].yCor 3307
config **.node[103].xCor 2638
config **.node[103].yCor 2258
config **.node[104].xCor 2590
config **.node[104].yCor 3125
config **.node[105].xCor 1856
config **.node[105].yCor 2990
config **.node[106].xCor 1894
config **.node[106].yCor 2239
config **.node[107].xCor 383
config **.node[107].yCor 1251
config **.node[108].xCor 3447
config **.node[108].yCor 5489
config **.node[109].xCor 3450
config **.node[109].yCor 5697
config **.node[110].xCor 2719
config **.node[110].yCor 1920
config **.node[111].xCor 2085
config **.node[111].yCor 2389
config **.node[112].xCor 1910
config **.node[112].yCor 2548
config **.node[113].xCor 2069
config **.node[113].yCor 2050
config **.node[114].xCor 2184
config **.node[114].yCor 2209
config **.node[115].xCor 2278
config **.node[115].yCor 2390
config **.node[116].xCor 2249
config **.node[116].yCor 2299
config **.node[117].xCor 2356
config **.node[117].yCor 2303
config **.node[118].xCor 2192
config **.node[118].yCor 2475
config **.node[119].xCor 1720
config **.node[119].yCor 2911
config **.node[120].xCor 2400
config **.node[120].yCor 2887
config **.node[121].xCor 3344
config **.node[121].yCor 1890
config **.node[122].xCor 3136
config **.node[122].yCor 2418
config **.node[123].xCor 3243
config **.node[123].yCor 2525
config **.node[124].xCor 2396
config **.node[124].yCor 1267
config **.node[125].xCor 467
config **.node[125].yCor 1875
config **.node[126].xCor 3506
config **.node[126].yCor 1221
config **.node[127].xCor 1034
config **.node[127].yCor 1474
config **.node[128].xCor 2908
config **.node[128].yCor 1784
config **.node[129].xCor 2876
config **.node[129].yCor 1761
config **.node[130].xCor 2849
config **.node[130].yCor 1795
config **.node[131].xCor 3029
config **.node[131].yCor 1859
config **.node[132].xCor 2924
config **.node[132].yCor 1848
config **.node[133].xCor 3493
config **.node[133].yCor 1559
config **.node[134].xCor 2760
config **.node[134].yCor 1761
config **.node[135].xCor 1644
config **.node[135].yCor 3755
config **.node[136].xCor 1463
config **.node[136].yCor 3432
config **.node[137].xCor 2595
config **.node[137].yCor 2849
config **.node[138].xCor 2581
config **.node[138].yCor 2867
config **.node[139].xCor 2524
config **.node[139].yCor 2911
config **.node[140].xCor 2570
config **.node[140].yCor 2924
config **.node[141].xCor 2676
config **.node[141].yCor 2890
config **.node[142].xCor 2666
config **.node[142].yCor 2876
config **.node[143].xCor 3735
config **.node[143].yCor 1726
config **.node[144].xCor 1637
config **.node[144].yCor 3438

vector 0 TaxiNetwork.node[19] visitedPerTimestep ETV
vector 1 TaxiNetwork.node[122] visitedPerTimestep ETV
vector 2 TaxiNetwork.node[11] visitedPerTimestep ETV
vector 3 TaxiNetwork.node[18] visitedPerTimestep ETV
vector 4 TaxiNetwork.node[88] visitedPerTimestep ETV
vector 5 TaxiNetwork.node[87] visitedPerTimestep ETV
vector 6 TaxiNetwork.node[45] visitedPerTimestep ETV
vector 7 TaxiNetwork.node[114] visitedPerTimestep ETV
vector 8 TaxiNetwork.node[7] visitedPerTimestep ETV
vector 9 TaxiNetwork.node[84] visitedPerTimestep ETV
vector 10 TaxiNetwork.node[2] visitedPerTimestep ETV
vector 11 TaxiNetwork.node[138] visitedPerTimestep ETV
vector 12 TaxiNetwork.node[140] visitedPerTimestep ETV
vector 13 TaxiNetwork.node[89] visitedPerTimestep ETV
vector 14 TaxiNetwork.node[13] visitedPerTimestep ETV
vector 15 TaxiNetwork.node[10] visitedPerTimestep ETV
vector 16 TaxiNetwork.node[9] visitedPerTimestep ETV
vector 17 TaxiNetwork.node[12] visitedPerTimestep ETV
vector 18 TaxiNetwork.node[90] visitedPerTimestep ETV
vector 19 TaxiNetwork.node[20] visitedPerTimestep ETV
vector 20 TaxiNetwork.node[31] visitedPerTimestep ETV
vector 21 TaxiNetwork.node[1] visitedPerTimestep ETV
vector 22 TaxiNetwork.node[36] visitedPerTimestep ETV
vector 23 TaxiNetwork.node[101] visitedPerTimestep ETV
vector 24 TaxiNetwork.node[92] visitedPerTimestep ETV
vector 25 TaxiNetwork.node[14] visitedPerTimestep ETV
vector 26 TaxiNetwork.node[120] visitedPerTimestep ETV
vector 27 TaxiNetwork.node[118] visitedPerTimestep ETV
vector 28 TaxiNetwork.node[139] visitedPerTimestep ETV
vector 29 TaxiNetwork.node[5] visitedPerTimestep ETV
vector 30 TaxiNetwork.node[111] visitedPerTimestep ETV
vector 31 TaxiNetwork.node[115] visitedPerTimestep ETV
vector 32 TaxiNetwork.node[100] visitedPerTimestep ETV
vector 33 TaxiNetwork.node[132] visitedPerTimestep ETV
vector 34 TaxiNetwork.node[134] visitedPerTimestep ETV
vector 35 TaxiNetwork.node[129] visitedPerTimestep ETV
vector 36 TaxiNetwork.node[103] visitedPerTimestep ETV
vector 37 TaxiNetwork.node[8] visitedPerTimestep ETV
vector 38 TaxiNetwork.node[142] visitedPerTimestep ETV
vector 39 TaxiNetwork.node[141] visitedPerTimestep ETV
vector 40 TaxiNetwork.node[6] visitedPerTimestep ETV
vector 41 TaxiNetwork.node[117] visitedPerTimestep ETV
vector 42 TaxiNetwork.node[53] visitedPerTimestep ETV
vector 43 TaxiNetwork.node[52] visitedPerTimestep ETV
vector 44 TaxiNetwork.node[105] visitedPerTimestep ETV
vector 45 TaxiNetwork.node[54] visitedPerTimestep ETV
vector 46 TaxiNetwork.node[33] visitedPerTimestep ETV
vector 47 TaxiNetwork.node[17] visitedPerTimestep ETV
vector 48 TaxiNetwork.node[0] visitedPerTimestep ETV
vector 49 TaxiNetwork.node[44] visitedPerTimestep ETV
vector 50 TaxiNetwork.node[123] visitedPerTimestep ETV
vector 51 TaxiNetwork.node[93] visitedPerTimestep ETV
vector 52 TaxiNetwork.node[85] visitedPerTimestep ETV
vector 53 TaxiNetwork.node[16] visitedPerTimestep ETV
vector 54 TaxiNetwork.node[137] visitedPerTimestep ETV
vector 55 TaxiNetwork.node[32] visitedPerTimestep ETV
vector 56 TaxiNetwork.node[94] visitedPerTimestep ETV
vector 57 TaxiNetwork.node[3] visitedPerTimestep ETV
vector 58 TaxiNetwork.node[104] visitedPerTimestep ETV
vector 59 TaxiNetwork.node[4] visitedPerTimestep ETV
vector 60 TaxiNetwork.node[86] visitedPerTimestep ETV
vector 61 TaxiNetwork.node[56] visitedPerTimestep ETV
vector 62 TaxiNetwork.node[39] visitedPerTimestep ETV
vector 63 TaxiNetwork.node[34] visitedPerTimestep ETV
vector 64 TaxiNetwork.node[82] visitedPerTimestep ETV
vector 65 TaxiNetwork.node[102] visitedPerTimestep ETV
vector 66 TaxiNetwork.node[91] visitedPerTimestep ETV
vector 67 TaxiNetwork.node[46] visitedPerTimestep ETV
vector 68 TaxiNetwork.node[130] visitedPerTimestep ETV
vector 69 TaxiNetwork.node[128] visitedPerTimestep ETV
vector 70 TaxiNetwork.node[69] visitedPerTimestep ETV
vector 71 TaxiNetwork.node[131] visitedPerTimestep ETV
vector 72 TaxiNetwork.node[121] visitedPerTimestep ETV
vector 73 TaxiNetwork.node[67] visitedPerTimestep ETV
vector 74 TaxiNetwork.node[144] visitedPerTimestep ETV
vector 75 TaxiNetwork.node[30] visitedPerTimestep ETV
vector 76 TaxiNetwork.node[58] visitedPerTimestep ETV
vector 77 TaxiNetwork.node[37] visitedPerTimestep ETV
vector 78 TaxiNetwork.node[15] visitedPerTimestep ETV
vector 79 TaxiNetwork.node[29] visitedPerTimestep ETV
vector 80 TaxiNetwork.node[21] visitedPerTimestep ETV
vector 81 TaxiNetwork.node[116] visitedPerTimestep ETV
vector 82 TaxiNetwork.node[110] visitedPerTimestep ETV
vector 83 TaxiNetwork.node[68] visitedPerTimestep ETV
vector 84 TaxiNetwork.node[60] visitedPerTimestep ETV
vector 85 TaxiNetwork.node[77] visitedPerTimestep ETV
vector 86 TaxiNetwork.node[143] visitedPerTimestep ETV
vector 87 TaxiNetwork.node[72] visitedPerTimestep ETV
vector 88 TaxiNetwork.node[62] visitedPerTimestep ETV
vector 89 TaxiNetwork.node[126] visitedPerTimestep ETV
vector 90 TaxiNetwork.node[78] visitedPerTimestep ETV
vector 91 TaxiNetwork.node[66] visitedPerTimestep ETV
vector 92 TaxiNetwork.node[73] visitedPerTimestep ETV
vector 93 TaxiNetwork.node[61] visitedPerTimestep ETV
vector 94 TaxiNetwork.node[63] visitedPerTimestep ETV
vector 95 TaxiNetwork.node[112] visitedPerTimestep ETV
vector 96 TaxiNetwork.node[70] visitedPerTimestep ETV
vector 97 TaxiNetwork.node[99] visitedPerTimestep ETV
vector 98 TaxiNetwork.node[133] visitedPerTimestep ETV
vector 99 TaxiNetwork.node[113] visitedPerTimestep ETV
vector 100 TaxiNetwork.node[106] visitedPerTimestep ETV
vector 101 TaxiNetwork.node[119] visitedPerTimestep ETV
vector 102 TaxiNetwork.node[136] visitedPerTimestep ETV
vector 103 TaxiNetwork.node[76] visitedPerTimestep ETV
vector 104 TaxiNetwork.node[79] visitedPerTimestep ETV
vector 105 TaxiNetwork.node[59] visitedPerTimestep ETV
vector 106 TaxiNetwork.node[98] visitedPerTimestep ETV
vector 107 TaxiNetwork.node[50] visitedPerTimestep ETV
vector 108 TaxiNetwork.node[47] visitedPerTimestep ETV
vector 109 TaxiNetwork.node[55] visitedPerTimestep ETV
vector 110 TaxiNetwork.node[24] visitedPerTimestep ETV
vector 111 TaxiNetwork.node[80] visitedPerTimestep ETV
vector 112 TaxiNetwork.node[95] visitedPerTimestep ETV
vector 113 TaxiNetwork.node[83] visitedPerTimestep ETV
vector 114 TaxiNetwork.node[35] visitedPerTimestep ETV
vector 115 TaxiNetwork.node[26] visitedPerTimestep ETV
vector 116 TaxiNetwork.node[40] visitedPerTimestep ETV
vector 117 TaxiNetwork.node[27] visitedPerTimestep ETV
vector 118 TaxiNetwork.node[28] visitedPerTimestep ETV
vector 119 TaxiNetwork.node[22] visitedPerTimestep ETV
vector 120 TaxiNetwork.node[23] visitedPerTimestep ETV
vector 121 TaxiNetwork.node[64] visitedPerTimestep ETV
vector 122 TaxiNetwork.node[57] visitedPerTimestep ETV
vector 123 TaxiNetwork.node[74] visitedPerTimestep ETV
vector 124 TaxiNetwork.node[109] visitedPerTimestep ETV
vector 125 TaxiNetwork.node[108] visitedPerTimestep ETV
vector 126 TaxiNetwork.node[41] visitedPerTimestep ETV
vector 127 TaxiNetwork.node[43] visitedPerTimestep ETV
vector 128 TaxiNetwork.node[38] visitedPerTimestep ETV
vector 129 TaxiNetwork.node[25] visitedPerTimestep ETV
vector 130 TaxiNetwork.node[42] visitedPerTimestep ETV
vector 131 TaxiNetwork.node[65] visitedPerTimestep ETV
vector 132 TaxiNetwork.node[51] visitedPerTimestep ETV
vector 133 TaxiNetwork.node[49] visitedPerTimestep ETV
vector 134 TaxiNetwork.node[75] visitedPerTimestep ETV
vector 135 TaxiNetwork.node[124] visitedPerTimestep ETV
vector 136 TaxiNetwork.node[48] visitedPerTimestep ETV
vector 137 TaxiNetwork.node[135] visitedPerTimestep ETV
0	16581 691 1 9072 0 0 55 1 144 6905 914071
1	17272 410 2 11552 0 0 33 2 144 3914 496602
2	17682 652 3 11352 0 0 51 3 144 6623 896215
3	18334 625 4 10520 0 0 49 4 144 6337 845673
4	18959 523 5 10184 0 0 42 5 144 5178 668810
5	19482 443 6 11504 0 0 35 6 144 4402 580810
6	19925 626 7 11136 0 0 50 7 144 6129 797755
7	20551 280 8 10440 0 0 23 8 144 2605 325757
8	20831 615 9 10792 0 0 49 9 144 6175 811769
9	21446 531 10 11576 0 0 42 10 144 5306 701194
10	21977 616 11 11128 0 0 45 11 144 5649 749365
11	22593 780 12 11456 0 0 57 12 144 7219 952981
12	23373 680 13 10896 0 0 50 13 144 6209 803607
13	24053 413 14 11280 0 0 31 14 144 3646 460970
14	24466 660 15 11488 0 0 48 15 144 6177 819081
15	25126 538 16 11528 0 0 39 16 144 5032 668528
16	25664 479 17 11376 0 0 35 17 144 4462 589762
17	26143 557 18 10512 0 0 41 18 144 5024 653664
18	26700 680 20 11240 0 0 50 19 144 6230 819756
19	27380 641 21 11568 0 0 47 20 144 5742 743792
20	28021 280 22 7720 0 0 21 21 144 2538 321198
21	28301 573 28 11208 0 0 42 22 144 5277 683199
22	28874 403 30 10760 0 0 30 23 144 3658 464834
23	29277 524 31 11264 0 0 39 24 144 4636 583702
24	29801 671 33 10136 0 0 49 25 144 6289 829719
25	30472 585 34 11304 0 0 43 26 144 5429 713823
26	31057 820 37 11512 0 0 60 27 144 7604 997422
27	31877 469 38 8112 0 0 35 28 144 4238 544214
28	32346 949 39 11344 0 0 70 29 144 8680 1127956
29	33295 655 40 11480 0 0 48 30 144 6056 791794
30	33950 552 42 9944 0 0 41 31 144 4977 635601
31	34502 590 43 11336 0 0 43 32 144 5418 704504
32	35092 719 44 11544 0 0 53 33 144 6590 848434
33	35811 159 45 9640 0 0 12 34 144 1378 170614
34	35970 123 46 11784 0 0 9 35 144 1134 152908
35	36093 209 47 11768 0 0 15 36 144 1973 270465
36	36302 462 48 11384 0 0 34 37 144 4277 558637
37	36764 504 50 10800 0 0 37 38 144 4640 605476
38	37268 583 51 8728 0 0 43 39 144 5354 693372
39	37851 726 52 11472 0 0 53 40 144 6789 892303
40	38577 763 54 11536 0 0 56 41 144 6990 901204
41	39340 540 55 10544 0 0 40 42 144 4962 634752
42	39880 473 56 10384 0 0 35 43 144 4241 539349
43	40353 510 60 10448 0 0 38 44 144 4623 592775
44	40863 152 61 8952 0 0 12 45 144 1195 135605
45	41015 522 64 11448 0 0 38 46 144 4869 638287
46	41537 481 66 10344 0 0 35 47 144 4515 597189
47	42018 799 67 8432 0 0 59 48 144 7366 951462
48	42817 578 68 11392 0 0 42 49 144 5425 717007
49	43395 611 69 11112 0 0 45 50 144 5563 709523
50	44006 302 70 10880 0 0 22 51 144 2848 379030
51	44308 714 73 11440 0 0 52 52 144 6717 887659
52	45022 606 75 11168 0 0 44 53 144 5603 731387
53	45628 669 79 11144 0 0 49 54 144 6292 824044
54	46297 713 89 11560 0 0 52 55 144 6595 858083
55	47010 408 93 10672 0 0 30 56 144 3798 493508
56	47418 511 94 9144 0 0 38 57 144 4722 604082
57	47929 639 95 10280 0 0 47 58 144 5949 770915
58	48568 706 104 11288 0 0 52 59 144 6561 852513
59	49274 628 105 11152 0 0 46 60 144 5909 775129
60	49902 764 106 11520 0 0 55 61 144 7233 965899
61	50666 381 114 10392 0 0 28 62 144 3514 452090
62	51047 203 127 11008 0 0 15 63 144 1828 229912
63	51250 263 128 11016 0 0 19 64 144 2464 328646
64	51513 385 129 11432 0 0 28 65 144 3619 481379
65	51898 755 131 11464 0 0 55 66 144 7094 934984
66	52653 773 134 11088 0 0 56 67 144 7338 975648
67	53426 840 135 11096 0 0 61 68 144 7929 1048785
68	54266 274 144 9816 0 0 20 69 144 2613 348907
69	54540 221 146 11696 0 0 16 70 144 2100 284800
70	54761 140 148 11776 0 0 10 71 144 1338 183486
71	54901 236 149 10864 0 0 17 72 144 2245 302505
72	55137 167 152 11656 0 0 12 73 144 1639 228325
73	55304 191 153 10872 0 0 14 74 144 1798 237752
74	55495 52 162 7576 0 0 4 75 141 434 49268
75	55547 847 166 11368 0 0 61 76 144 8139 1096331
76	56394 80 181 7832 0 0 6 77 144 729 91567
77	56474 246 199 10600 0 0 18 78 144 2311 301621
78	56720 595 202 10288 0 0 44 79 144 5512 706818
79	57315 206 229 9256 0 0 15 80 144 1963 260503
80	57521 109 248 9208 0 0 8 81 144 1031 135989
81	57630 331 258 10432 0 0 24 82 144 3093 403785
82	57961 272 259 9392 0 0 20 83 144 2583 339815
83	58233 232 260 11760 0 0 17 84 144 2142 277160
84	58465 204 261 9896 0 0 15 85 144 1938 255472
85	58669 65 262 6180 0 0 5 86 140 557 64847
86	58734 148 263 11720 0 0 11 87 144 1319 163411
87	58882 150 264 9768 0 0 11 88 144 1425 188591
88	59032 201 266 10848 0 0 15 89 144 1860 238742
89	59233 165 269 9856 0 0 12 90 144 1598 216170
90	59398 148 270 9760 0 0 11 91 144 1376 177022
91	59546 94 272 9840 0 0 7 92 144 893 117203
92	59640 94 274 9864 0 0 7 93 144 870 111396
93	59734 211 278 11736 0 0 15 94 144 2079 290377
94	59945 288 281 11672 0 0 21 95 144 2741 364321
95	60233 221 322 10424 0 0 16 96 144 2130 286766
96	60454 265 329 11792 0 0 19 97 145 2609 361441
97	60719 168 332 11704 0 0 12 98 144 1650 228830
98	60887 179 333 9592 0 0 13 99 144 1763 241997
99	61066 123 357 11320 0 0 9 100 144 1133 145107
100	61189 233 362 7560 0 0 16 101 141 2040 263496
101	61422 175 363 7568 0 0 12 102 141 1505 191581
102	61597 58 364 8152 0 0 4 103 144 495 62547
103	61655 59 386 9728 0 0 4 104 144 532 71888
104	61714 177 394 9920 0 0 12 105 144 1613 218853
105	61891 132 426 11328 0 0 9 106 144 1145 147449
106	62023 74 471 8208 0 0 5 107 144 673 91563
107	62097 74 472 8184 0 0 5 108 144 679 93193
108	62171 29 473 8176 0 0 2 109 144 253 32617
109	62200 412 497 10560 0 0 28 110 144 3640 476906
110	62612 74 507 10648 0 0 5 111 144 641 82851
111	62686 90 579 11752 0 0 6 112 144 827 114809
112	62776 44 580 9512 0 0 3 113 144 394 52274
113	62820 374 645 11424 0 0 25 114 144 3376 458132
114	63194 118 742 10992 0 0 8 115 144 1051 138953
115	63312 135 759 11000 0 0 9 116 144 1213 164251
116	63447 165 783 11024 0 0 11 117 144 1499 205063
117	63612 194 784 10632 0 0 13 118 144 1767 241193
118	63806 87 786 9232 0 0 6 119 144 785 103443
119	63893 148 788 8784 0 0 10 120 144 1351 183195
120	64041 59 790 1750 0 0 4 121 136 529 70129
121	64100 196 868 11728 0 0 13 122 144 1808 251858
122	64296 120 1166 5996 0 0 8 126 140 1095 150025
123	64416 165 1674 8800 0 0 11 129 144 1506 206462
124	64581 75 1676 5584 0 0 5 130 139 677 91709
125	64656 90 1684 5580 0 0 6 131 139 817 111309
126	64746 135 1686 1754 0 0 9 132 136 1218 164850
127	64881 105 1688 5572 0 0 7 133 139 958 131140
128	64986 120 1692 1752 0 0 8 134 136 1085 147157
129	65106 75 1694 1730 0 0 5 135 136 678 91938
130	65181 105 1704 5576 0 0 7 136 139 958 131122
131	65286 90 3864 6736 0 0 6 139 141 837 116765
132	65376 15 4608 4608 0 0 1 139 139 139 19321
133	65391 30 4612 8200 0 0 2 139 144 283 40057
134	65421 91 6320 11600 0 0 6 140 144 860 123280
135	65512 30 7840 9496 0 0 2 144 144 288 41472
136	65542 15 8144 8144 0 0 1 144 144 144 20736
137	65557 30 8160 8192 0 0 2 144 144 288 41472

