file 53058 1756984393                                           
version 3
run General-50-20250904-14:13:13-15277
attr configname General
attr datetime 20250904-14:13:13
attr datetimef 20250904-141313
attr experiment General
attr inifile omnetpp.ini
attr iterationvars ""
attr iterationvarsd ""
attr iterationvarsf ""
attr measurement ""
attr network TaxiNetwork
attr processid 15277
attr repetition 50
attr replication #50
attr resultdir results
attr runnumber 50
attr seedset 50
config network TaxiNetwork
config seed-set 50
config num-rngs 1
config sim-time-limit 10s
config repeat 500
config *.numWalkers 1
config *.enableDuplication true
config *.rc 700
config **.node[0].xCor 2933
config **.node[0].yCor 2747
config **.node[1].xCor 2919
config **.node[1].yCor 2817
config **.node[2].xCor 2910
config **.node[2].yCor 2861
config **.node[3].xCor 2429
config **.node[3].yCor 2851
config **.node[4].xCor 2908
config **.node[4].yCor 2714
config **.node[5].xCor 2606
config **.node[5].yCor 2722
config **.node[6].xCor 2575
config **.node[6].yCor 2753
config **.node[7].xCor 2654
config **.node[7].yCor 2513
config **.node[8].xCor 2773
config **.node[8].yCor 2580
config **.node[9].xCor 3043
config **.node[9].yCor 2780
config **.node[10].xCor 3020
config **.node[10].yCor 2813
config **.node[11].xCor 2599
config **.node[11].yCor 2300
config **.node[12].xCor 2917
config **.node[12].yCor 2698
config **.node[13].xCor 2625
config **.node[13].yCor 2641
config **.node[14].xCor 2604
config **.node[14].yCor 2790
config **.node[15].xCor 2786
config **.node[15].yCor 3082
config **.node[16].xCor 2603
config **.node[16].yCor 2802
config **.node[17].xCor 2637
config **.node[17].yCor 2869
config **.node[18].xCor 2675
config **.node[18].yCor 2955
config **.node[19].xCor 2845
config **.node[19].yCor 2937
config **.node[20].xCor 2860
config **.node[20].yCor 2888
config **.node[21].xCor 2843
config **.node[21].yCor 4158
config **.node[22].xCor 2852
config **.node[22].yCor 4017
config **.node[23].xCor 2892
config **.node[23].yCor 4961
config **.node[24].xCor 2313
config **.node[24].yCor 3993
config **.node[25].xCor 2891
config **.node[25].yCor 4959
config **.node[26].xCor 2370
config **.node[26].yCor 4050
config **.node[27].xCor 2788
config **.node[27].yCor 3958
config **.node[28].xCor 2819
config **.node[28].yCor 4428
config **.node[29].xCor 2790
config **.node[29].yCor 3761
config **.node[30].xCor 2809
config **.node[30].yCor 2908
config **.node[31].xCor 2919
config **.node[31].yCor 3575
config **.node[32].xCor 2946
config **.node[32].yCor 3466
config **.node[33].xCor 2911
config **.node[33].yCor 3453
config **.node[34].xCor 2370
config **.node[34].yCor 3656
config **.node[35].xCor 2438
config **.node[35].yCor 3738
config **.node[36].xCor 2737
config **.node[36].yCor 3570
config **.node[37].xCor 2921
config **.node[37].yCor 3698
config **.node[38].xCor 2907
config **.node[38].yCor 5197
config **.node[39].xCor 2860
config **.node[39].yCor 3852
config **.node[40].xCor 2927
config **.node[40].yCor 3684
config **.node[41].xCor 3023
config **.node[41].yCor 5313
config **.node[42].xCor 3220
config **.node[42].yCor 5811
config **.node[43].xCor 3432
config **.node[43].yCor 5715
config **.node[44].xCor 2754
config **.node[44].yCor 2463
config **.node[45].xCor 2646
config **.node[45].yCor 2673
config **.node[46].xCor 3051
config **.node[46].yCor 2792
config **.node[47].xCor 1666
config **.node[47].yCor 3697
config **.node[48].xCor 1662
config **.node[48].yCor 3694
config **.node[49].xCor 1664
config **.node[49].yCor 3667
config **.node[50].xCor 1660
config **.node[50].yCor 3664
config **.node[51].xCor 1710
config **.node[51].yCor 3573
config **.node[52].xCor 2082
config **.node[52].yCor 2650
config **.node[53].xCor 2086
config **.node[53].yCor 2657
config **.node[54].xCor 2257
config **.node[54].yCor 3232
config **.node[55].xCor 2258
config **.node[55].yCor 3225
config **.node[56].xCor 1926
config **.node[56].yCor 2570
config **.node[57].xCor 1926
config **.node[57].yCor 2576
config **.node[58].xCor 2104
config **.node[58].yCor 1758
config **.node[59].xCor 1957
config **.node[59].yCor 1826
config **.node[60].xCor 3473
config **.node[60].yCor 1523
config **.node[61].xCor 3335
config **.node[61].yCor 1726
config **.node[62].xCor 3478
config **.node[62].yCor 1517
config **.node[63].xCor 3386
config **.node[63].yCor 2119
config **.node[64].xCor 3474
config **.node[64].yCor 1762
config **.node[65].xCor 3797
config **.node[65].yCor 2099
config **.node[66].xCor 3642
config **.node[66].yCor 2136
config **.node[67].xCor 3481
config **.node[67].yCor 2334
config **.node[68].xCor 3088
config **.node[68].yCor 1505
config **.node[69].xCor 3037
config **.node[69].yCor 1693
config **.node[70].xCor 3026
config **.node[70].yCor 1700
config **.node[71].xCor 3019
config **.node[71].yCor 669
config **.node[72].xCor 3513
config **.node[72].yCor 1358
config **.node[73].xCor 3545
config **.node[73].yCor 1230
config **.node[74].xCor 4228
config **.node[74].yCor 4220
config **.node[75].xCor 3379
config **.node[75].yCor 1207
config **.node[76].xCor 3596
config **.node[76].yCor 963
config **.node[77].xCor 3637
config **.node[77].yCor 1188
config **.node[78].xCor 3759
config **.node[78].yCor 1030
config **.node[79].xCor 2918
config **.node[79].yCor 1455
config **.node[80].xCor 2711
config **.node[80].yCor 1297
config **.node[81].xCor 439
config **.node[81].yCor 1623
config **.node[82].xCor 2857
config **.node[82].yCor 3581
config **.node[83].xCor 2858
config **.node[83].yCor 3584
config **.node[84].xCor 2999
config **.node[84].yCor 2636
config **.node[85].xCor 2905
config **.node[85].yCor 2778
config **.node[86].xCor 2653
config **.node[86].yCor 2845
config **.node[87].xCor 2864
config **.node[87].yCor 2836
config **.node[88].xCor 2426
config **.node[88].yCor 2892
config **.node[89].xCor 2964
config **.node[89].yCor 2804
config **.node[90].xCor 2586
config **.node[90].yCor 3135
config **.node[91].xCor 2864
config **.node[91].yCor 2980
config **.node[92].xCor 2527
config **.node[92].yCor 3219
config **.node[93].xCor 2863
config **.node[93].yCor 3142
config **.node[94].xCor 2485
config **.node[94].yCor 3269
config **.node[95].xCor 2653
config **.node[95].yCor 1065
config **.node[96].xCor 4062
config **.node[96].yCor 400
config **.node[97].xCor 5762
config **.node[97].yCor 3023
config **.node[98].xCor 1414
config **.node[98].yCor 3461
config **.node[99].xCor 2911
config **.node[99].yCor 1737
config **.node[100].xCor 2595
config **.node[100].yCor 2299
config **.node[101].xCor 2702
config **.node[101].yCor 3419
config **.node[102].xCor 2813
config **.node[102].yCor 3307
config **.node[103].xCor 2638
config **.node[103].yCor 2258
config **.node[104].xCor 2590
config **.node[104].yCor 3125
config **.node[105].xCor 1856
config **.node[105].yCor 2990
config **.node[106].xCor 1894
config **.node[106].yCor 2239
config **.node[107].xCor 383
config **.node[107].yCor 1251
config **.node[108].xCor 3447
config **.node[108].yCor 5489
config **.node[109].xCor 3450
config **.node[109].yCor 5697
config **.node[110].xCor 2719
config **.node[110].yCor 1920
config **.node[111].xCor 2085
config **.node[111].yCor 2389
config **.node[112].xCor 1910
config **.node[112].yCor 2548
config **.node[113].xCor 2069
config **.node[113].yCor 2050
config **.node[114].xCor 2184
config **.node[114].yCor 2209
config **.node[115].xCor 2278
config **.node[115].yCor 2390
config **.node[116].xCor 2249
config **.node[116].yCor 2299
config **.node[117].xCor 2356
config **.node[117].yCor 2303
config **.node[118].xCor 2192
config **.node[118].yCor 2475
config **.node[119].xCor 1720
config **.node[119].yCor 2911
config **.node[120].xCor 2400
config **.node[120].yCor 2887
config **.node[121].xCor 3344
config **.node[121].yCor 1890
config **.node[122].xCor 3136
config **.node[122].yCor 2418
config **.node[123].xCor 3243
config **.node[123].yCor 2525
config **.node[124].xCor 2396
config **.node[124].yCor 1267
config **.node[125].xCor 467
config **.node[125].yCor 1875
config **.node[126].xCor 3506
config **.node[126].yCor 1221
config **.node[127].xCor 1034
config **.node[127].yCor 1474
config **.node[128].xCor 2908
config **.node[128].yCor 1784
config **.node[129].xCor 2876
config **.node[129].yCor 1761
config **.node[130].xCor 2849
config **.node[130].yCor 1795
config **.node[131].xCor 3029
config **.node[131].yCor 1859
config **.node[132].xCor 2924
config **.node[132].yCor 1848
config **.node[133].xCor 3493
config **.node[133].yCor 1559
config **.node[134].xCor 2760
config **.node[134].yCor 1761
config **.node[135].xCor 1644
config **.node[135].yCor 3755
config **.node[136].xCor 1463
config **.node[136].yCor 3432
config **.node[137].xCor 2595
config **.node[137].yCor 2849
config **.node[138].xCor 2581
config **.node[138].yCor 2867
config **.node[139].xCor 2524
config **.node[139].yCor 2911
config **.node[140].xCor 2570
config **.node[140].yCor 2924
config **.node[141].xCor 2676
config **.node[141].yCor 2890
config **.node[142].xCor 2666
config **.node[142].yCor 2876
config **.node[143].xCor 3735
config **.node[143].yCor 1726
config **.node[144].xCor 1637
config **.node[144].yCor 3438

vector 0 TaxiNetwork.node[137] visitedPerTimestep ETV
vector 1 TaxiNetwork.node[86] visitedPerTimestep ETV
vector 2 TaxiNetwork.node[11] visitedPerTimestep ETV
vector 3 TaxiNetwork.node[128] visitedPerTimestep ETV
vector 4 TaxiNetwork.node[44] visitedPerTimestep ETV
vector 5 TaxiNetwork.node[88] visitedPerTimestep ETV
vector 6 TaxiNetwork.node[4] visitedPerTimestep ETV
vector 7 TaxiNetwork.node[7] visitedPerTimestep ETV
vector 8 TaxiNetwork.node[104] visitedPerTimestep ETV
vector 9 TaxiNetwork.node[6] visitedPerTimestep ETV
vector 10 TaxiNetwork.node[45] visitedPerTimestep ETV
vector 11 TaxiNetwork.node[115] visitedPerTimestep ETV
vector 12 TaxiNetwork.node[2] visitedPerTimestep ETV
vector 13 TaxiNetwork.node[89] visitedPerTimestep ETV
vector 14 TaxiNetwork.node[123] visitedPerTimestep ETV
vector 15 TaxiNetwork.node[5] visitedPerTimestep ETV
vector 16 TaxiNetwork.node[15] visitedPerTimestep ETV
vector 17 TaxiNetwork.node[85] visitedPerTimestep ETV
vector 18 TaxiNetwork.node[52] visitedPerTimestep ETV
vector 19 TaxiNetwork.node[111] visitedPerTimestep ETV
vector 20 TaxiNetwork.node[117] visitedPerTimestep ETV
vector 21 TaxiNetwork.node[116] visitedPerTimestep ETV
vector 22 TaxiNetwork.node[103] visitedPerTimestep ETV
vector 23 TaxiNetwork.node[118] visitedPerTimestep ETV
vector 24 TaxiNetwork.node[3] visitedPerTimestep ETV
vector 25 TaxiNetwork.node[141] visitedPerTimestep ETV
vector 26 TaxiNetwork.node[20] visitedPerTimestep ETV
vector 27 TaxiNetwork.node[16] visitedPerTimestep ETV
vector 28 TaxiNetwork.node[100] visitedPerTimestep ETV
vector 29 TaxiNetwork.node[13] visitedPerTimestep ETV
vector 30 TaxiNetwork.node[131] visitedPerTimestep ETV
vector 31 TaxiNetwork.node[80] visitedPerTimestep ETV
vector 32 TaxiNetwork.node[71] visitedPerTimestep ETV
vector 33 TaxiNetwork.node[75] visitedPerTimestep ETV
vector 34 TaxiNetwork.node[60] visitedPerTimestep ETV
vector 35 TaxiNetwork.node[95] visitedPerTimestep ETV
vector 36 TaxiNetwork.node[124] visitedPerTimestep ETV
vector 37 TaxiNetwork.node[58] visitedPerTimestep ETV
vector 38 TaxiNetwork.node[140] visitedPerTimestep ETV
vector 39 TaxiNetwork.node[0] visitedPerTimestep ETV
vector 40 TaxiNetwork.node[139] visitedPerTimestep ETV
vector 41 TaxiNetwork.node[19] visitedPerTimestep ETV
vector 42 TaxiNetwork.node[102] visitedPerTimestep ETV
vector 43 TaxiNetwork.node[29] visitedPerTimestep ETV
vector 44 TaxiNetwork.node[21] visitedPerTimestep ETV
vector 45 TaxiNetwork.node[40] visitedPerTimestep ETV
vector 46 TaxiNetwork.node[33] visitedPerTimestep ETV
vector 47 TaxiNetwork.node[142] visitedPerTimestep ETV
vector 48 TaxiNetwork.node[114] visitedPerTimestep ETV
vector 49 TaxiNetwork.node[120] visitedPerTimestep ETV
vector 50 TaxiNetwork.node[56] visitedPerTimestep ETV
vector 51 TaxiNetwork.node[1] visitedPerTimestep ETV
vector 52 TaxiNetwork.node[94] visitedPerTimestep ETV
vector 53 TaxiNetwork.node[34] visitedPerTimestep ETV
vector 54 TaxiNetwork.node[27] visitedPerTimestep ETV
vector 55 TaxiNetwork.node[37] visitedPerTimestep ETV
vector 56 TaxiNetwork.node[101] visitedPerTimestep ETV
vector 57 TaxiNetwork.node[28] visitedPerTimestep ETV
vector 58 TaxiNetwork.node[36] visitedPerTimestep ETV
vector 59 TaxiNetwork.node[54] visitedPerTimestep ETV
vector 60 TaxiNetwork.node[82] visitedPerTimestep ETV
vector 61 TaxiNetwork.node[35] visitedPerTimestep ETV
vector 62 TaxiNetwork.node[26] visitedPerTimestep ETV
vector 63 TaxiNetwork.node[83] visitedPerTimestep ETV
vector 64 TaxiNetwork.node[92] visitedPerTimestep ETV
vector 65 TaxiNetwork.node[32] visitedPerTimestep ETV
vector 66 TaxiNetwork.node[17] visitedPerTimestep ETV
vector 67 TaxiNetwork.node[122] visitedPerTimestep ETV
vector 68 TaxiNetwork.node[18] visitedPerTimestep ETV
vector 69 TaxiNetwork.node[8] visitedPerTimestep ETV
vector 70 TaxiNetwork.node[12] visitedPerTimestep ETV
vector 71 TaxiNetwork.node[14] visitedPerTimestep ETV
vector 72 TaxiNetwork.node[9] visitedPerTimestep ETV
vector 73 TaxiNetwork.node[138] visitedPerTimestep ETV
vector 74 TaxiNetwork.node[55] visitedPerTimestep ETV
vector 75 TaxiNetwork.node[53] visitedPerTimestep ETV
vector 76 TaxiNetwork.node[113] visitedPerTimestep ETV
vector 77 TaxiNetwork.node[46] visitedPerTimestep ETV
vector 78 TaxiNetwork.node[91] visitedPerTimestep ETV
vector 79 TaxiNetwork.node[112] visitedPerTimestep ETV
vector 80 TaxiNetwork.node[93] visitedPerTimestep ETV
vector 81 TaxiNetwork.node[30] visitedPerTimestep ETV
vector 82 TaxiNetwork.node[39] visitedPerTimestep ETV
vector 83 TaxiNetwork.node[144] visitedPerTimestep ETV
vector 84 TaxiNetwork.node[51] visitedPerTimestep ETV
vector 85 TaxiNetwork.node[105] visitedPerTimestep ETV
vector 86 TaxiNetwork.node[98] visitedPerTimestep ETV
vector 87 TaxiNetwork.node[47] visitedPerTimestep ETV
vector 88 TaxiNetwork.node[84] visitedPerTimestep ETV
vector 89 TaxiNetwork.node[87] visitedPerTimestep ETV
vector 90 TaxiNetwork.node[10] visitedPerTimestep ETV
vector 91 TaxiNetwork.node[57] visitedPerTimestep ETV
vector 92 TaxiNetwork.node[110] visitedPerTimestep ETV
vector 93 TaxiNetwork.node[69] visitedPerTimestep ETV
vector 94 TaxiNetwork.node[133] visitedPerTimestep ETV
vector 95 TaxiNetwork.node[76] visitedPerTimestep ETV
vector 96 TaxiNetwork.node[77] visitedPerTimestep ETV
vector 97 TaxiNetwork.node[143] visitedPerTimestep ETV
vector 98 TaxiNetwork.node[72] visitedPerTimestep ETV
vector 99 TaxiNetwork.node[65] visitedPerTimestep ETV
vector 100 TaxiNetwork.node[61] visitedPerTimestep ETV
vector 101 TaxiNetwork.node[78] visitedPerTimestep ETV
vector 102 TaxiNetwork.node[73] visitedPerTimestep ETV
vector 103 TaxiNetwork.node[119] visitedPerTimestep ETV
vector 104 TaxiNetwork.node[90] visitedPerTimestep ETV
vector 105 TaxiNetwork.node[106] visitedPerTimestep ETV
vector 106 TaxiNetwork.node[31] visitedPerTimestep ETV
vector 107 TaxiNetwork.node[67] visitedPerTimestep ETV
vector 108 TaxiNetwork.node[23] visitedPerTimestep ETV
vector 109 TaxiNetwork.node[25] visitedPerTimestep ETV
vector 110 TaxiNetwork.node[24] visitedPerTimestep ETV
vector 111 TaxiNetwork.node[22] visitedPerTimestep ETV
vector 112 TaxiNetwork.node[63] visitedPerTimestep ETV
vector 113 TaxiNetwork.node[70] visitedPerTimestep ETV
vector 114 TaxiNetwork.node[64] visitedPerTimestep ETV
vector 115 TaxiNetwork.node[132] visitedPerTimestep ETV
vector 116 TaxiNetwork.node[129] visitedPerTimestep ETV
vector 117 TaxiNetwork.node[79] visitedPerTimestep ETV
vector 118 TaxiNetwork.node[126] visitedPerTimestep ETV
vector 119 TaxiNetwork.node[96] visitedPerTimestep ETV
vector 120 TaxiNetwork.node[121] visitedPerTimestep ETV
vector 121 TaxiNetwork.node[130] visitedPerTimestep ETV
vector 122 TaxiNetwork.node[68] visitedPerTimestep ETV
vector 123 TaxiNetwork.node[127] visitedPerTimestep ETV
vector 124 TaxiNetwork.node[136] visitedPerTimestep ETV
vector 125 TaxiNetwork.node[50] visitedPerTimestep ETV
vector 126 TaxiNetwork.node[48] visitedPerTimestep ETV
vector 127 TaxiNetwork.node[135] visitedPerTimestep ETV
vector 128 TaxiNetwork.node[49] visitedPerTimestep ETV
vector 129 TaxiNetwork.node[66] visitedPerTimestep ETV
vector 130 TaxiNetwork.node[59] visitedPerTimestep ETV
vector 131 TaxiNetwork.node[62] visitedPerTimestep ETV
vector 132 TaxiNetwork.node[134] visitedPerTimestep ETV
vector 133 TaxiNetwork.node[99] visitedPerTimestep ETV
vector 134 TaxiNetwork.node[74] visitedPerTimestep ETV
vector 135 TaxiNetwork.node[108] visitedPerTimestep ETV
vector 136 TaxiNetwork.node[43] visitedPerTimestep ETV
vector 137 TaxiNetwork.node[97] visitedPerTimestep ETV
0	16581 446 1 4996 0 0 36 1 142 4477 588809
1	17027 510 2 5308 0 0 41 2 142 5114 685334
2	17537 383 3 5792 0 0 32 3 142 3558 449508
3	17920 255 4 5804 0 0 20 4 142 2672 374724
4	18175 558 5 5240 0 0 45 5 142 5703 762025
5	18733 511 6 5692 0 0 41 6 142 5151 689111
6	19244 241 7 5284 0 0 20 7 142 2321 293641
7	19485 390 8 5100 0 0 32 8 142 3754 478854
8	19875 588 9 5740 0 0 47 9 142 6081 817445
9	20463 444 10 4968 0 0 36 10 142 4327 557149
10	20907 429 11 5224 0 0 32 11 142 3998 526472
11	21336 359 12 5696 0 0 27 12 142 3270 418642
12	21695 362 14 5680 0 0 27 13 142 3298 441640
13	22057 376 15 5092 0 0 28 14 142 3449 452887
14	22433 311 17 5320 0 0 23 15 142 2958 400650
15	22744 512 18 5764 0 0 38 16 142 4752 634308
16	23256 393 19 5652 0 0 30 17 142 3514 437804
17	23649 318 20 5312 0 0 24 18 142 2945 383499
18	23967 284 22 5212 0 0 21 19 142 2676 360182
19	24251 375 23 5632 0 0 28 20 142 3427 449555
20	24626 395 24 5216 0 0 30 21 142 3501 449521
21	25021 307 28 5012 0 0 23 22 142 2732 355008
22	25328 418 29 4936 0 0 31 23 142 3998 533456
23	25746 325 30 5760 0 0 24 24 142 3086 412300
24	26071 643 31 5736 0 0 48 25 142 5987 787593
25	26714 498 32 5776 0 0 38 26 142 4408 544910
26	27212 475 34 5608 0 0 35 27 142 4524 606842
27	27687 392 36 4868 0 0 29 28 142 3699 490983
28	28079 459 38 5008 0 0 35 29 142 4045 503987
29	28538 369 42 5268 0 0 27 30 142 3529 477599
30	28907 340 47 5824 0 0 25 31 143 3273 441941
31	29247 123 48 5484 0 0 9 32 142 1151 157587
32	29370 36 49 3060 0 0 3 33 141 209 22195
33	29406 201 50 5528 0 0 15 34 142 1820 240062
34	29607 336 51 5548 0 0 25 35 142 3201 423787
35	29943 53 54 5476 0 0 4 36 142 454 59580
36	29996 108 55 5588 0 0 8 37 142 1008 136192
37	30104 120 56 5592 0 0 9 38 142 1106 146178
38	30224 445 59 5756 0 0 34 39 142 3994 496212
39	30669 438 61 5744 0 0 33 40 142 4042 517932
40	31107 470 62 5684 0 0 35 41 142 4346 562528
41	31577 479 63 5788 0 0 36 42 142 4379 563755
42	32056 423 64 5616 0 0 32 43 142 3788 472926
43	32479 226 65 4424 0 0 17 44 142 2054 260766
44	32705 93 66 3580 0 0 7 45 142 827 105255
45	32798 160 67 4756 0 0 12 46 142 1464 190504
46	32958 238 68 4752 0 0 18 47 142 2152 271936
47	33196 486 70 5620 0 0 36 48 142 4602 609826
48	33682 174 72 4364 0 0 13 49 142 1658 220632
49	33856 510 76 5728 0 0 38 50 142 4861 642335
50	34366 147 78 5204 0 0 11 51 142 1353 176145
51	34513 415 80 5664 0 0 31 52 142 3868 501488
52	34928 423 81 5780 0 0 31 53 142 4123 559577
53	35351 214 82 3848 0 0 16 54 142 2008 263590
54	35565 139 83 3632 0 0 11 55 142 1146 134366
55	35704 195 84 3772 0 0 15 56 142 1731 211151
56	35899 492 85 5044 0 0 36 57 142 4802 651134
57	36391 51 87 3628 0 0 4 58 142 418 47292
58	36442 174 89 5028 0 0 13 59 142 1610 207062
59	36616 359 90 5784 0 0 27 60 142 3311 425165
60	36975 267 92 4420 0 0 20 61 142 2529 330683
61	37242 215 95 4436 0 0 16 62 142 2070 276264
62	37457 91 96 2916 0 0 7 63 141 839 105081
63	37548 251 98 3264 0 0 19 64 141 2304 289626
64	37799 313 99 5704 0 0 23 65 142 3027 408983
65	38112 270 101 5604 0 0 20 66 142 2602 346144
66	38382 419 103 5108 0 0 31 67 142 3984 523466
67	38801 337 105 4772 0 0 25 68 142 3143 411527
68	39138 387 111 4932 0 0 29 69 142 3591 455727
69	39525 504 113 5716 0 0 37 70 142 4877 654999
70	40029 402 115 5676 0 0 30 71 142 3730 477958
71	40431 393 118 5708 0 0 29 72 142 3781 505167
72	40824 557 121 5688 0 0 41 73 142 5389 721333
73	41381 433 128 5636 0 0 32 74 142 4095 536991
74	41814 363 130 5228 0 0 27 75 142 3399 440911
75	42177 243 138 5000 0 0 18 76 142 2267 293877
76	42420 160 140 4896 0 0 12 77 142 1505 194141
77	42580 311 169 4908 0 0 23 78 142 3018 403380
78	42891 583 175 5288 0 0 43 79 142 5570 735948
79	43474 227 186 5732 0 0 17 80 142 2097 266419
80	43701 440 193 5720 0 0 32 81 142 4329 592579
81	44141 435 200 5752 0 0 32 82 142 4232 567074
82	44576 94 204 5032 0 0 7 83 142 881 115143
83	44670 65 220 4412 0 0 5 84 142 584 71512
84	44735 40 221 4376 0 0 3 85 142 367 46989
85	44775 145 222 2206 0 0 11 86 141 1383 176217
86	44920 51 223 700 0 0 4 87 129 468 55970
87	44971 12 224 224 0 0 1 88 88 88 7744
88	44983 326 229 5768 0 0 24 89 142 3128 415988
89	45309 312 245 5256 0 0 23 90 142 3001 398133
90	45621 325 285 5772 0 0 24 91 142 3107 410375
91	45946 146 320 5152 0 0 11 92 142 1389 179141
92	46092 273 328 5796 0 0 20 93 142 2641 353071
93	46365 206 340 5492 0 0 15 94 142 2014 273540
94	46571 305 341 5516 0 0 22 95 142 3020 416842
95	46876 109 342 5504 0 0 8 96 142 1057 141729
96	46985 95 344 5572 0 0 7 97 142 921 122935
97	47080 162 346 5524 0 0 12 98 142 1549 203613
98	47242 149 347 2464 0 0 11 99 141 1430 187952
99	47391 82 350 3152 0 0 6 100 141 764 99444
100	47473 237 351 5460 0 0 16 101 142 2151 291375
101	47710 132 354 5544 0 0 9 102 142 1187 158257
102	47842 148 356 5568 0 0 10 103 142 1356 185178
103	47990 129 360 4528 0 0 9 104 142 1167 152427
104	48119 400 383 4780 0 0 27 105 142 3674 503202
105	48519 88 458 5136 0 0 6 106 142 803 108487
106	48607 219 466 5656 0 0 15 107 142 2025 274691
107	48826 205 513 5324 0 0 14 108 142 1889 255971
108	49031 28 542 544 0 0 2 109 110 219 23981
109	49059 14 543 543 0 0 1 110 110 110 12100
110	49073 133 546 4432 0 0 9 111 142 1229 168697
111	49206 102 567 4604 0 0 7 112 142 933 125135
112	49308 205 581 5436 0 0 14 113 142 1887 255321
113	49513 235 582 5800 0 0 16 114 142 2148 290000
114	49748 223 585 5812 0 0 15 115 142 2039 278051
115	49971 282 590 5832 0 0 19 116 145 2599 356893
116	50253 320 591 5820 0 0 22 117 143 2920 389068
117	50573 222 592 5584 0 0 15 118 142 2062 284268
118	50795 74 596 5512 0 0 5 119 142 677 92059
119	50869 29 598 5540 0 0 2 120 142 262 34564
120	50898 325 606 5816 0 0 22 121 142 3023 416147
121	51223 248 607 5560 0 0 17 122 142 2297 311279
122	51471 269 621 5828 0 0 18 123 144 2511 350683
123	51740 14 624 624 0 0 1 124 124 124 15376
124	51754 58 682 4400 0 0 4 125 142 538 72594
125	51812 71 683 4380 0 0 5 126 142 654 85706
126	51883 44 684 4396 0 0 3 127 142 411 56457
127	51927 72 685 4408 0 0 5 128 142 670 89994
128	51999 28 695 701 0 0 2 129 129 258 33282
129	52027 149 772 5420 0 0 10 130 142 1374 188960
130	52176 59 839 4320 0 0 4 131 142 556 77370
131	52235 284 965 5532 0 0 19 132 142 2625 362923
132	52519 118 968 3048 0 0 8 133 141 1109 153821
133	52637 225 1134 5488 0 0 15 134 142 2090 291320
134	52862 135 1858 5040 0 0 9 140 142 1271 179497
135	52997 30 2972 2976 0 0 2 141 141 282 39762
136	53027 15 2974 2974 0 0 1 141 141 141 19881
137	53042 15 3272 3272 0 0 1 142 142 142 20164

