version 3
run General-215-20250904-14:13:18-15556
attr configname General
attr datetime 20250904-14:13:18
attr datetimef 20250904-141318
attr experiment General
attr inifile omnetpp.ini
attr iterationvars ""
attr iterationvarsd ""
attr iterationvarsf ""
attr measurement ""
attr network TaxiNetwork
attr processid 15556
attr repetition 215
attr replication #215
attr resultdir results
attr runnumber 215
attr seedset 215
config network TaxiNetwork
config seed-set 215
config num-rngs 1
config sim-time-limit 10s
config repeat 500
config *.numWalkers 1
config *.enableDuplication true
config *.rc 700
config **.node[0].xCor 2933
config **.node[0].yCor 2747
config **.node[1].xCor 2919
config **.node[1].yCor 2817
config **.node[2].xCor 2910
config **.node[2].yCor 2861
config **.node[3].xCor 2429
config **.node[3].yCor 2851
config **.node[4].xCor 2908
config **.node[4].yCor 2714
config **.node[5].xCor 2606
config **.node[5].yCor 2722
config **.node[6].xCor 2575
config **.node[6].yCor 2753
config **.node[7].xCor 2654
config **.node[7].yCor 2513
config **.node[8].xCor 2773
config **.node[8].yCor 2580
config **.node[9].xCor 3043
config **.node[9].yCor 2780
config **.node[10].xCor 3020
config **.node[10].yCor 2813
config **.node[11].xCor 2599
config **.node[11].yCor 2300
config **.node[12].xCor 2917
config **.node[12].yCor 2698
config **.node[13].xCor 2625
config **.node[13].yCor 2641
config **.node[14].xCor 2604
config **.node[14].yCor 2790
config **.node[15].xCor 2786
config **.node[15].yCor 3082
config **.node[16].xCor 2603
config **.node[16].yCor 2802
config **.node[17].xCor 2637
config **.node[17].yCor 2869
config **.node[18].xCor 2675
config **.node[18].yCor 2955
config **.node[19].xCor 2845
config **.node[19].yCor 2937
config **.node[20].xCor 2860
config **.node[20].yCor 2888
config **.node[21].xCor 2843
config **.node[21].yCor 4158
config **.node[22].xCor 2852
config **.node[22].yCor 4017
config **.node[23].xCor 2892
config **.node[23].yCor 4961
config **.node[24].xCor 2313
config **.node[24].yCor 3993
config **.node[25].xCor 2891
config **.node[25].yCor 4959
config **.node[26].xCor 2370
config **.node[26].yCor 4050
config **.node[27].xCor 2788
config **.node[27].yCor 3958
config **.node[28].xCor 2819
config **.node[28].yCor 4428
config **.node[29].xCor 2790
config **.node[29].yCor 3761
config **.node[30].xCor 2809
config **.node[30].yCor 2908
config **.node[31].xCor 2919
config **.node[31].yCor 3575
config **.node[32].xCor 2946
config **.node[32].yCor 3466
config **.node[33].xCor 2911
config **.node[33].yCor 3453
config **.node[34].xCor 2370
config **.node[34].yCor 3656
config **.node[35].xCor 2438
config **.node[35].yCor 3738
config **.node[36].xCor 2737
config **.node[36].yCor 3570
config **.node[37].xCor 2921
config **.node[37].yCor 3698
config **.node[38].xCor 2907
config **.node[38].yCor 5197
config **.node[39].xCor 2860
config **.node[39].yCor 3852
config **.node[40].xCor 2927
config **.node[40].yCor 3684
config **.node[41].xCor 3023
config **.node[41].yCor 5313
config **.node[42].xCor 3220
config **.node[42].yCor 5811
config **.node[43].xCor 3432
config **.node[43].yCor 5715
config **.node[44].xCor 2754
config **.node[44].yCor 2463
config **.node[45].xCor 2646
config **.node[45].yCor 2673
config **.node[46].xCor 3051
config **.node[46].yCor 2792
config **.node[47].xCor 1666
config **.node[47].yCor 3697
config **.node[48].xCor 1662
config **.node[48].yCor 3694
config **.node[49].xCor 1664
config **.node[49].yCor 3667
config **.node[50].xCor 1660
config **.node[50].yCor 3664
config **.node[51].xCor 1710
config **.node[51].yCor 3573
config **.node[52].xCor 2082
config **.node[52].yCor 2650
config **.node[53].xCor 2086
config **.node[53].yCor 2657
config **.node[54].xCor 2257
config **.node[54].yCor 3232
config **.node[55].xCor 2258
config **.node[55].yCor 3225
config **.node[56].xCor 1926
config **.node[56].yCor 2570
config **.node[57].xCor 1926
config **.node[57].yCor 2576
config **.node[58].xCor 2104
config **.node[58].yCor 1758
config **.node[59].xCor 1957
config **.node[59].yCor 1826
config **.node[60].xCor 3473
config **.node[60].yCor 1523
config **.node[61].xCor 3335
config **.node[61].yCor 1726
config **.node[62].xCor 3478
config **.node[62].yCor 1517
config **.node[63].xCor 3386
config **.node[63].yCor 2119
config **.node[64].xCor 3474
config **.node[64].yCor 1762
config **.node[65].xCor 3797
config **.node[65].yCor 2099
config **.node[66].xCor 3642
config **.node[66].yCor 2136
config **.node[67].xCor 3481
config **.node[67].yCor 2334
config **.node[68].xCor 3088
config **.node[68].yCor 1505
config **.node[69].xCor 3037
config **.node[69].yCor 1693
config **.node[70].xCor 3026
config **.node[70].yCor 1700
config **.node[71].xCor 3019
config **.node[71].yCor 669
config **.node[72].xCor 3513
config **.node[72].yCor 1358
config **.node[73].xCor 3545
config **.node[73].yCor 1230
config **.node[74].xCor 4228
config **.node[74].yCor 4220
config **.node[75].xCor 3379
config **.node[75].yCor 1207
config **.node[76].xCor 3596
config **.node[76].yCor 963
config **.node[77].xCor 3637
config **.node[77].yCor 1188
config **.node[78].xCor 3759
config **.node[78].yCor 1030
config **.node[79].xCor 2918
config **.node[79].yCor 1455
config **.node[80].xCor 2711
config **.node[80].yCor 1297
config **.node[81].xCor 439
config **.node[81].yCor 1623
config **.node[82].xCor 2857
config **.node[82].yCor 3581
config **.node[83].xCor 2858
config **.node[83].yCor 3584
config **.node[84].xCor 2999
config **.node[84].yCor 2636
config **.node[85].xCor 2905
config **.node[85].yCor 2778
config **.node[86].xCor 2653
config **.node[86].yCor 2845
config **.node[87].xCor 2864
config **.node[87].yCor 2836
config **.node[88].xCor 2426
config **.node[88].yCor 2892
config **.node[89].xCor 2964
config **.node[89].yCor 2804
config **.node[90].xCor 2586
config **.node[90].yCor 3135
config **.node[91].xCor 2864
config **.node[91].yCor 2980
config **.node[92].xCor 2527
config **.node[92].yCor 3219
config **.node[93].xCor 2863
config **.node[93].yCor 3142
config **.node[94].xCor 2485
config **.node[94].yCor 3269
config **.node[95].xCor 2653
config **.node[95].yCor 1065
config **.node[96].xCor 4062
config **.node[96].yCor 400
config **.node[97].xCor 5762
config **.node[97].yCor 3023
config **.node[98].xCor 1414
config **.node[98].yCor 3461
config **.node[99].xCor 2911
config **.node[99].yCor 1737
config **.node[100].xCor 2595
config **.node[100].yCor 2299
config **.node[101].xCor 2702
config **.node[101].yCor 3419
config **.node[102].xCor 2813
config **.node[102].yCor 3307
config **.node[103].xCor 2638
config **.node[103].yCor 2258
config **.node[104].xCor 2590
config **.node[104].yCor 3125
config **.node[105].xCor 1856
config **.node[105].yCor 2990
config **.node[106].xCor 1894
config **.node[106].yCor 2239
config **.node[107].xCor 383
config **.node[107].yCor 1251
config **.node[108].xCor 3447
config **.node[108].yCor 5489
config **.node[109].xCor 3450
config **.node[109].yCor 5697
config **.node[110].xCor 2719
config **.node[110].yCor 1920
config **.node[111].xCor 2085
config **.node[111].yCor 2389
config **.node[112].xCor 1910
config **.node[112].yCor 2548
config **.node[113].xCor 2069
config **.node[113].yCor 2050
config **.node[114].xCor 2184
config **.node[114].yCor 2209
config **.node[115].xCor 2278
config **.node[115].yCor 2390
config **.node[116].xCor 2249
config **.node[116].yCor 2299
config **.node[117].xCor 2356
config **.node[117].yCor 2303
config **.node[118].xCor 2192
config **.node[118].yCor 2475
config **.node[119].xCor 1720
config **.node[119].yCor 2911
config **.node[120].xCor 2400
config **.node[120].yCor 2887
config **.node[121].xCor 3344
config **.node[121].yCor 1890
config **.node[122].xCor 3136
config **.node[122].yCor 2418
config **.node[123].xCor 3243
config **.node[123].yCor 2525
config **.node[124].xCor 2396
config **.node[124].yCor 1267
config **.node[125].xCor 467
config **.node[125].yCor 1875
config **.node[126].xCor 3506
config **.node[126].yCor 1221
config **.node[127].xCor 1034
config **.node[127].yCor 1474
config **.node[128].xCor 2908
config **.node[128].yCor 1784
config **.node[129].xCor 2876
config **.node[129].yCor 1761
config **.node[130].xCor 2849
config **.node[130].yCor 1795
config **.node[131].xCor 3029
config **.node[131].yCor 1859
config **.node[132].xCor 2924
config **.node[132].yCor 1848
config **.node[133].xCor 3493
config **.node[133].yCor 1559
config **.node[134].xCor 2760
config **.node[134].yCor 1761
config **.node[135].xCor 1644
config **.node[135].yCor 3755
config **.node[136].xCor 1463
config **.node[136].yCor 3432
config **.node[137].xCor 2595
config **.node[137].yCor 2849
config **.node[138].xCor 2581
config **.node[138].yCor 2867
config **.node[139].xCor 2524
config **.node[139].yCor 2911
config **.node[140].xCor 2570
config **.node[140].yCor 2924
config **.node[141].xCor 2676
config **.node[141].yCor 2890
config **.node[142].xCor 2666
config **.node[142].yCor 2876
config **.node[143].xCor 3735
config **.node[143].yCor 1726
config **.node[144].xCor 1637
config **.node[144].yCor 3438

vector 0 TaxiNetwork.node[6] visitedPerTimestep ETV
vector 1 TaxiNetwork.node[54] visitedPerTimestep ETV
vector 2 TaxiNetwork.node[14] visitedPerTimestep ETV
vector 3 TaxiNetwork.node[15] visitedPerTimestep ETV
vector 4 TaxiNetwork.node[87] visitedPerTimestep ETV
vector 5 TaxiNetwork.node[102] visitedPerTimestep ETV
vector 6 TaxiNetwork.node[90] visitedPerTimestep ETV
vector 7 TaxiNetwork.node[35] visitedPerTimestep ETV
vector 8 TaxiNetwork.node[21] visitedPerTimestep ETV
vector 9 TaxiNetwork.node[40] visitedPerTimestep ETV
vector 10 TaxiNetwork.node[37] visitedPerTimestep ETV
vector 11 TaxiNetwork.node[104] visitedPerTimestep ETV
vector 12 TaxiNetwork.node[12] visitedPerTimestep ETV
vector 13 TaxiNetwork.node[122] visitedPerTimestep ETV
vector 14 TaxiNetwork.node[46] visitedPerTimestep ETV
vector 15 TaxiNetwork.node[67] visitedPerTimestep ETV
vector 16 TaxiNetwork.node[63] visitedPerTimestep ETV
vector 17 TaxiNetwork.node[99] visitedPerTimestep ETV
vector 18 TaxiNetwork.node[68] visitedPerTimestep ETV
vector 19 TaxiNetwork.node[130] visitedPerTimestep ETV
vector 20 TaxiNetwork.node[80] visitedPerTimestep ETV
vector 21 TaxiNetwork.node[69] visitedPerTimestep ETV
vector 22 TaxiNetwork.node[72] visitedPerTimestep ETV
vector 23 TaxiNetwork.node[61] visitedPerTimestep ETV
vector 24 TaxiNetwork.node[110] visitedPerTimestep ETV
vector 25 TaxiNetwork.node[121] visitedPerTimestep ETV
vector 26 TaxiNetwork.node[131] visitedPerTimestep ETV
vector 27 TaxiNetwork.node[11] visitedPerTimestep ETV
vector 28 TaxiNetwork.node[5] visitedPerTimestep ETV
vector 29 TaxiNetwork.node[52] visitedPerTimestep ETV
vector 30 TaxiNetwork.node[82] visitedPerTimestep ETV
vector 31 TaxiNetwork.node[74] visitedPerTimestep ETV
vector 32 TaxiNetwork.node[108] visitedPerTimestep ETV
vector 33 TaxiNetwork.node[109] visitedPerTimestep ETV
vector 34 TaxiNetwork.node[97] visitedPerTimestep ETV
vector 35 TaxiNetwork.node[83] visitedPerTimestep ETV
vector 36 TaxiNetwork.node[32] visitedPerTimestep ETV
vector 37 TaxiNetwork.node[27] visitedPerTimestep ETV
vector 38 TaxiNetwork.node[101] visitedPerTimestep ETV
vector 39 TaxiNetwork.node[30] visitedPerTimestep ETV
vector 40 TaxiNetwork.node[55] visitedPerTimestep ETV
vector 41 TaxiNetwork.node[18] visitedPerTimestep ETV
vector 42 TaxiNetwork.node[36] visitedPerTimestep ETV
vector 43 TaxiNetwork.node[141] visitedPerTimestep ETV
vector 44 TaxiNetwork.node[10] visitedPerTimestep ETV
vector 45 TaxiNetwork.node[120] visitedPerTimestep ETV
vector 46 TaxiNetwork.node[56] visitedPerTimestep ETV
vector 47 TaxiNetwork.node[113] visitedPerTimestep ETV
vector 48 TaxiNetwork.node[9] visitedPerTimestep ETV
vector 49 TaxiNetwork.node[140] visitedPerTimestep ETV
vector 50 TaxiNetwork.node[34] visitedPerTimestep ETV
vector 51 TaxiNetwork.node[33] visitedPerTimestep ETV
vector 52 TaxiNetwork.node[85] visitedPerTimestep ETV
vector 53 TaxiNetwork.node[44] visitedPerTimestep ETV
vector 54 TaxiNetwork.node[139] visitedPerTimestep ETV
vector 55 TaxiNetwork.node[111] visitedPerTimestep ETV
vector 56 TaxiNetwork.node[4] visitedPerTimestep ETV
vector 57 TaxiNetwork.node[29] visitedPerTimestep ETV
vector 58 TaxiNetwork.node[45] visitedPerTimestep ETV
vector 59 TaxiNetwork.node[88] visitedPerTimestep ETV
vector 60 TaxiNetwork.node[60] visitedPerTimestep ETV
vector 61 TaxiNetwork.node[66] visitedPerTimestep ETV
vector 62 TaxiNetwork.node[143] visitedPerTimestep ETV
vector 63 TaxiNetwork.node[64] visitedPerTimestep ETV
vector 64 TaxiNetwork.node[123] visitedPerTimestep ETV
vector 65 TaxiNetwork.node[89] visitedPerTimestep ETV
vector 66 TaxiNetwork.node[142] visitedPerTimestep ETV
vector 67 TaxiNetwork.node[3] visitedPerTimestep ETV
vector 68 TaxiNetwork.node[117] visitedPerTimestep ETV
vector 69 TaxiNetwork.node[114] visitedPerTimestep ETV
vector 70 TaxiNetwork.node[116] visitedPerTimestep ETV
vector 71 TaxiNetwork.node[13] visitedPerTimestep ETV
vector 72 TaxiNetwork.node[115] visitedPerTimestep ETV
vector 73 TaxiNetwork.node[119] visitedPerTimestep ETV
vector 74 TaxiNetwork.node[106] visitedPerTimestep ETV
vector 75 TaxiNetwork.node[105] visitedPerTimestep ETV
vector 76 TaxiNetwork.node[19] visitedPerTimestep ETV
vector 77 TaxiNetwork.node[86] visitedPerTimestep ETV
vector 78 TaxiNetwork.node[8] visitedPerTimestep ETV
vector 79 TaxiNetwork.node[57] visitedPerTimestep ETV
vector 80 TaxiNetwork.node[94] visitedPerTimestep ETV
vector 81 TaxiNetwork.node[31] visitedPerTimestep ETV
vector 82 TaxiNetwork.node[92] visitedPerTimestep ETV
vector 83 TaxiNetwork.node[16] visitedPerTimestep ETV
vector 84 TaxiNetwork.node[1] visitedPerTimestep ETV
vector 85 TaxiNetwork.node[65] visitedPerTimestep ETV
vector 86 TaxiNetwork.node[132] visitedPerTimestep ETV
vector 87 TaxiNetwork.node[134] visitedPerTimestep ETV
vector 88 TaxiNetwork.node[77] visitedPerTimestep ETV
vector 89 TaxiNetwork.node[75] visitedPerTimestep ETV
vector 90 TaxiNetwork.node[126] visitedPerTimestep ETV
vector 91 TaxiNetwork.node[73] visitedPerTimestep ETV
vector 92 TaxiNetwork.node[76] visitedPerTimestep ETV
vector 93 TaxiNetwork.node[133] visitedPerTimestep ETV
vector 94 TaxiNetwork.node[129] visitedPerTimestep ETV
vector 95 TaxiNetwork.node[103] visitedPerTimestep ETV
vector 96 TaxiNetwork.node[2] visitedPerTimestep ETV
vector 97 TaxiNetwork.node[0] visitedPerTimestep ETV
vector 98 TaxiNetwork.node[22] visitedPerTimestep ETV
vector 99 TaxiNetwork.node[28] visitedPerTimestep ETV
vector 100 TaxiNetwork.node[26] visitedPerTimestep ETV
vector 101 TaxiNetwork.node[137] visitedPerTimestep ETV
vector 102 TaxiNetwork.node[58] visitedPerTimestep ETV
vector 103 TaxiNetwork.node[79] visitedPerTimestep ETV
vector 104 TaxiNetwork.node[17] visitedPerTimestep ETV
vector 105 TaxiNetwork.node[112] visitedPerTimestep ETV
vector 106 TaxiNetwork.node[100] visitedPerTimestep ETV
vector 107 TaxiNetwork.node[20] visitedPerTimestep ETV
vector 108 TaxiNetwork.node[93] visitedPerTimestep ETV
vector 109 TaxiNetwork.node[59] visitedPerTimestep ETV
vector 110 TaxiNetwork.node[84] visitedPerTimestep ETV
vector 111 TaxiNetwork.node[138] visitedPerTimestep ETV
vector 112 TaxiNetwork.node[118] visitedPerTimestep ETV
vector 113 TaxiNetwork.node[7] visitedPerTimestep ETV
vector 114 TaxiNetwork.node[39] visitedPerTimestep ETV
vector 115 TaxiNetwork.node[91] visitedPerTimestep ETV
vector 116 TaxiNetwork.node[53] visitedPerTimestep ETV
vector 117 TaxiNetwork.node[95] visitedPerTimestep ETV
vector 118 TaxiNetwork.node[124] visitedPerTimestep ETV
vector 119 TaxiNetwork.node[62] visitedPerTimestep ETV
vector 120 TaxiNetwork.node[127] visitedPerTimestep ETV
vector 121 TaxiNetwork.node[24] visitedPerTimestep ETV
vector 122 TaxiNetwork.node[128] visitedPerTimestep ETV
vector 123 TaxiNetwork.node[78] visitedPerTimestep ETV
vector 124 TaxiNetwork.node[70] visitedPerTimestep ETV
vector 125 TaxiNetwork.node[71] visitedPerTimestep ETV
vector 126 TaxiNetwork.node[51] visitedPerTimestep ETV
vector 127 TaxiNetwork.node[136] visitedPerTimestep ETV
vector 128 TaxiNetwork.node[135] visitedPerTimestep ETV
vector 129 TaxiNetwork.node[50] visitedPerTimestep ETV
vector 130 TaxiNetwork.node[98] visitedPerTimestep ETV
vector 131 TaxiNetwork.node[23] visitedPerTimestep ETV
vector 132 TaxiNetwork.node[144] visitedPerTimestep ETV
vector 133 TaxiNetwork.node[48] visitedPerTimestep ETV
vector 134 TaxiNetwork.node[47] visitedPerTimestep ETV
vector 135 TaxiNetwork.node[49] visitedPerTimestep ETV
vector 136 TaxiNetwork.node[125] visitedPerTimestep ETV
vector 137 TaxiNetwork.node[81] visitedPerTimestep ETV
vector 138 TaxiNetwork.node[107] visitedPerTimestep ETV
0	1	0	1
0	136	0	77
0	158	0	84
0	492	0	117
0	523	0	119
0	679	0	120
0	723	0	120
0	727	0	120
0	730	0	120
0	741	0	120
0	841	0	121
0	844	0	121
0	917	0	121
0	1204	0	126
0	1414	0	133
0	1472	0	133
0	1768	0	133
0	1814	0	133
0	2006	0	136
0	2028	0	136
0	2034	0	136
0	2492	0	136
0	2500	0	136
0	2538	0	136
0	2634	0	136
0	2810	0	136
0	2912	0	138
0	2924	0	138
0	2970	0	138
0	3008	0	138
0	3192	0	138
0	3720	0	141
0	4084	0	141
0	4400	0	141
0	4720	0	141
0	4812	0	141
0	5048	0	141
0	5216	0	141
0	6028	0	141
0	6164	0	141
0	7848	0	141
0	8760	0	141
0	8848	0	141
0	9144	0	144
0	9856	0	144
0	10064	0	144
0	10920	0	144
0	13120	0	144
0	13224	0	144
0	13512	0	144
0	13864	0	144
0	14056	0	144
0	15608	0	144
0	15672	0	144
0	15736	0	144
1	2	0	2
1	7	0	5
1	69	0	50
1	138	0	77
1	210	0	101
1	259	0	107
1	275	0	109
1	583	0	119
1	664	0	120
1	794	0	120
1	1132	0	126
1	1384	0	133
1	2020	0	136
1	2038	0	136
1	2128	0	136
1	2170	0	136
1	2294	0	136
1	2450	0	136
1	2954	0	138
1	3248	0	138
1	3728	0	141
1	5008	0	141
1	5020	0	141
1	5092	0	141
1	5336	0	141
1	5360	0	141
1	5584	0	141
1	6104	0	141
1	7816	0	141
1	8560	0	141
1	8600	0	141
1	8616	0	141
1	8648	0	141
1	8752	0	141
1	10320	0	144
1	10656	0	144
1	11952	0	144
1	12024	0	144
1	13552	0	144
1	14320	0	144
1	14544	0	144
2	3	0	3
2	78	0	55
2	224	0	104
2	260	0	107
2	262	0	107
2	277	0	109
2	340	0	112
2	467	0	116
2	599	0	119
2	683	0	120
2	697	0	120
2	720	0	120
2	782	0	120
2	1140	0	126
2	1340	0	133
2	1364	0	133
2	1428	0	133
2	1436	0	133
2	1570	0	133
2	1722	0	133
2	1786	0	133
2	1898	0	134
2	2114	0	136
2	2278	0	136
2	2322	0	136
2	2614	0	136
2	2756	0	136
2	2768	0	136
2	2812	0	136
2	2920	0	138
2	2936	0	138
2	2958	0	138
2	2978	0	138
2	3172	0	138
2	3808	0	141
2	4032	0	141
2	5400	0	141
2	5596	0	141
2	5736	0	141
2	5772	0	141
2	6596	0	141
2	6704	0	141
2	7168	0	141
2	7608	0	141
2	7952	0	141
2	8032	0	141
2	8400	0	141
2	10712	0	144
2	12160	0	144
2	13216	0	144
2	13888	0	144
2	14664	0	144
2	14688	0	144
2	15080	0	144
3	4	0	4
3	6	0	5
3	56	0	41
3	66	0	48
3	263	0	107
3	462	0	116
3	477	0	116
3	509	0	119
3	525	0	119
3	711	0	120
3	796	0	120
3	809	0	120
3	839	0	121
3	854	0	121
3	1404	0	133
3	1876	0	134
3	1946	0	136
3	2050	0	136
3	2282	0	136
3	2292	0	136
3	2326	0	136
3	2552	0	136
3	2766	0	136
3	2944	0	138
3	3296	0	138
3	3772	0	141
3	3848	0	141
3	3868	0	141
3	4048	0	141
3	4056	0	141
3	4200	0	141
3	4292	0	141
3	4404	0	141
3	5368	0	141
3	5704	0	141
3	5752	0	141
3	5896	0	141
3	5904	0	141
3	6072	0	141
3	6640	0	141
3	7056	0	141
3	7488	0	141
3	9872	0	144
3	10848	0	144
3	10912	0	144
3	13704	0	144
3	14160	0	144
3	15928	0	144
3	16184	0	144
4	5	0	5
4	223	0	104
4	252	0	107
4	400	0	116
4	410	0	116
4	424	0	116
4	574	0	119
4	585	0	119
4	607	0	119
4	750	0	120
4	752	0	120
4	797	0	120
4	822	0	120
4	842	0	121
4	859	0	121
4	913	0	121
4	959	0	122
4	964	0	122
4	984	0	123
4	1496	0	133
4	1600	0	133
4	1662	0	133
4	1688	0	133
4	1756	0	133
4	1762	0	133
4	2198	0	136
4	2252	0	136
4	2310	0	136
4	2320	0	136
4	2468	0	136
4	2860	0	138
4	3660	0	141
4	3676	0	141
4	3784	0	141
4	4180	0	141
4	4212	0	141
4	4252	0	141
4	5680	0	141
4	6156	0	141
4	6548	0	141
4	6664	0	141
4	7048	0	141
4	8856	0	141
4	10856	0	144
4	13008	0	144
4	13648	0	144
4	14000	0	144
4	14512	0	144
4	14584	0	144
4	14712	0	144
5	8	0	6
5	92	0	58
5	134	0	77
5	293	0	109
5	323	0	111
5	326	0	111
5	430	0	116
5	449	0	116
5	564	0	119
5	584	0	119
5	594	0	119
5	1550	0	133
5	1606	0	133
5	1646	0	133
5	1682	0	133
5	1808	0	133
5	1856	0	133
5	1886	0	134
5	2546	0	136
5	2760	0	136
5	2782	0	136
5	2824	0	136
5	2828	0	136
5	2842	0	136
5	2930	0	138
5	2990	0	138
5	2994	0	138
5	3092	0	138
5	3112	0	138
5	3340	0	138
5	4424	0	141
5	4800	0	141
5	5104	0	141
5	5428	0	141
5	5488	0	141
5	5700	0	141
5	5884	0	141
5	7696	0	141
5	7776	0	141
5	8280	0	141
5	8496	0	141
5	9864	0	144
5	10024	0	144
5	10216	0	144
5	10800	0	144
5	11944	0	144
5	12048	0	144
5	13800	0	144
5	14016	0	144
5	15912	0	144
6	9	0	7
6	15	0	12
6	36	0	30
6	137	0	77
6	154	0	83
6	203	0	98
6	249	0	107
6	284	0	109
6	356	0	113
6	366	0	114
6	383	0	115
6	392	0	116
6	401	0	116
6	428	0	116
6	448	0	116
6	522	0	119
6	572	0	119
6	586	0	119
6	667	0	120
6	709	0	120
6	801	0	120
6	837	0	121
6	991	0	123
6	1020	0	123
6	1028	0	123
6	1362	0	133
6	1406	0	133
6	1596	0	133
6	1754	0	133
6	1852	0	133
6	2134	0	136
6	2288	0	136
6	2484	0	136
6	2610	0	136
6	2820	0	136
6	2918	0	138
6	3188	0	138
6	3276	0	138
6	3288	0	138
6	3300	0	138
6	3780	0	141
6	4816	0	141
6	4852	0	141
6	4892	0	141
6	5372	0	141
6	5492	0	141
6	6648	0	141
6	6656	0	141
6	7480	0	141
6	7592	0	141
6	8656	0	141
6	9000	0	144
6	10232	0	144
6	12008	0	144
6	12064	0	144
6	12280	0	144
6	12328	0	144
6	13016	0	144
6	13424	0	144
6	14984	0	144
7	10	0	8
7	209	0	101
7	257	0	107
7	429	0	116
7	456	0	116
7	592	0	119
7	936	0	122
7	1000	0	123
7	1240	0	131
7	2834	0	136
7	3128	0	138
7	5156	0	141
7	5852	0	141
7	8072	0	141
7	8208	0	141
7	10224	0	144
7	10384	0	144
7	10464	0	144
7	13416	0	144
8	11	0	9
8	369	0	115
8	372	0	115
8	375	0	115
8	378	0	115
8	454	0	116
8	589	0	119
8	591	0	119
8	930	0	121
8	1002	0	123
8	1024	0	123
8	1970	0	136
8	2158	0	136
8	3124	0	138
8	5572	0	141
8	10376	0	144
8	10432	0	144
8	10816	0	144
9	12	0	10
9	204	0	98
9	457	0	116
9	526	0	119
9	708	0	120
9	1250	0	133
9	1850	0	133
9	2014	0	136
9	2154	0	136
9	2338	0	136
9	5100	0	141
9	5108	0	141
9	5568	0	141
9	9400	0	144
9	12336	0	144
10	13	0	11
10	52	0	39
10	133	0	77
10	896	0	121
10	994	0	123
10	1246	0	132
10	1254	0	133
10	1844	0	133
10	1872	0	134
10	3304	0	138
10	4952	0	141
10	5536	0	141
10	8080	0	141
10	10408	0	144
10	13968	0	144
11	14	0	12
11	50	0	39
11	312	0	111
11	316	0	111
11	331	0	111
11	362	0	113
11	388	0	116
11	556	0	119
11	787	0	120
11	891	0	121
11	895	0	121
11	928	0	121
11	962	0	122
11	980	0	123
11	1270	0	133
11	1812	0	133
11	1942	0	136
11	2024	0	136
11	2058	0	136
11	2340	0	136
11	2542	0	136
11	2596	0	136
11	2858	0	138
11	3016	0	138
11	3204	0	138
11	3316	0	138
11	4068	0	141
11	4128	0	141
11	4248	0	141
11	4620	0	141
11	4824	0	141
11	4908	0	141
11	4956	0	141
11	5364	0	141
11	5768	0	141
11	5784	0	141
11	6152	0	141
11	6832	0	141
11	7968	0	141
11	8296	0	141
11	8408	0	141
11	11568	0	144
11	12192	0	144
11	13544	0	144
11	13896	0	144
11	14048	0	144
11	14576	0	144
11	15096	0	144
12	16	0	13
12	83	0	57
12	250	0	107
12	304	0	110
12	333	0	111
12	358	0	113
12	444	0	116
12	555	0	119
12	558	0	119
12	641	0	120
12	1188	0	126
12	1442	0	133
12	1608	0	133
12	1648	0	133
12	1826	0	133
12	2616	0	136
12	2792	0	136
12	2864	0	138
12	2868	0	138
12	3608	0	141
12	4236	0	141
12	4244	0	141
12	5432	0	141
12	5500	0	141
12	5712	0	141
12	5908	0	141
12	6088	0	141
12	6160	0	141
12	6836	0	141
12	7032	0	141
12	7248	0	141
12	8536	0	141
12	10256	0	144
12	11968	0	144
12	14520	0	144
12	15448	0	144
13	17	0	14
13	272	0	108
13	296	0	109
13	440	0	116
13	576	0	119
13	678	0	120
13	941	0	122
13	986	0	123
13	1046	0	123
13	1186	0	126
13	1446	0	133
13	1462	0	133
13	1474	0	133
13	1766	0	133
13	2208	0	136
13	2466	0	136
13	3348	0	138
13	4376	0	141
13	4500	0	141
13	4644	0	141
13	5212	0	141
13	5644	0	141
13	6276	0	141
13	6348	0	141
13	6476	0	141
13	6496	0	141
13	6556	0	141
13	6800	0	141
13	7368	0	141
13	8424	0	141
13	8776	0	141
13	8800	0	141
13	8832	0	141
13	9056	0	144
13	9240	0	144
13	9760	0	144
13	11888	0	144
13	13000	0	144
13	13840	0	144
13	14224	0	144
13	14648	0	144
13	14680	0	144
13	16328	0	145
14	18	0	15
14	106	0	66
14	231	0	105
14	248	0	107
14	264	0	107
14	269	0	107
14	292	0	109
14	336	0	112
14	570	0	119
14	767	0	120
14	800	0	120
14	961	0	122
14	1146	0	126
14	1274	0	133
14	1836	0	133
14	1878	0	134
14	1896	0	134
14	1954	0	136
14	1960	0	136
14	2032	0	136
14	2248	0	136
14	2472	0	136
14	2878	0	138
14	2940	0	138
14	2992	0	138
14	3828	0	141
14	4204	0	141
14	4372	0	141
14	4716	0	141
14	4996	0	141
14	5392	0	141
14	5480	0	141
14	5708	0	141
14	5900	0	141
14	6084	0	141
14	6172	0	141
14	6492	0	141
14	7880	0	141
14	10080	0	144
14	10704	0	144
14	10784	0	144
14	11608	0	144
14	11928	0	144
14	12072	0	144
14	13168	0	144
14	13312	0	144
14	15112	0	144
14	15352	0	144
14	15960	0	144
14	15992	0	144
14	16264	0	144
15	19	0	16
15	200	0	97
15	973	0	123
15	1482	0	133
15	2564	0	136
15	2866	0	138
15	4668	0	141
15	7304	0	141
15	9216	0	144
15	10976	0	144
15	11192	0	144
15	11520	0	144
16	20	0	17
16	195	0	94
16	629	0	119
16	828	0	120
16	902	0	121
16	942	0	122
16	1050	0	123
16	1484	0	133
16	2092	0	136
16	2582	0	136
16	3480	0	138
16	3544	0	141
16	4308	0	141
16	4324	0	141
16	4504	0	141
16	4684	0	141
16	6204	0	141
16	6236	0	141
16	6432	0	141
16	6448	0	141
16	7296	0	141
16	9608	0	144
16	11416	0	144
16	11472	0	144
16	12720	0	144
16	12808	0	144
17	21	0	18
17	176	0	88
17	639	0	120
17	966	0	122
17	1064	0	123
17	1070	0	123
17	1084	0	124
17	1180	0	126
17	2396	0	136
17	2676	0	136
17	2710	0	136
17	3924	0	141
17	4536	0	141
17	4688	0	141
17	5984	0	141
17	6292	0	141
17	6324	0	141
17	6392	0	141
17	7440	0	141
17	9680	0	144
17	9720	0	144
17	11424	0	144
17	11904	0	144
17	12632	0	144
17	12896	0	144
18	22	0	19
18	191	0	94
18	621	0	119
18	626	0	119
18	943	0	122
18	946	0	122
18	969	0	123
18	1054	0	123
18	2106	0	136
18	2730	0	136
18	3404	0	138
18	3456	0	138
18	4328	0	141
18	4340	0	141
18	6356	0	141
18	6388	0	141
18	6452	0	141
18	6756	0	141
18	7336	0	141
18	9600	0	144
18	9616	0	144
18	11248	0	144
18	11272	0	144
18	11296	0	144
18	11368	0	144
18	12880	0	144
18	14888	0	144
19	23	0	20
19	219	0	103
19	495	0	117
19	827	0	120
19	834	0	121
19	905	0	121
19	1058	0	123
19	1062	0	123
19	1122	0	126
19	1448	0	133
19	1460	0	133
19	1490	0	133
19	2684	0	136
19	2734	0	136
19	3836	0	141
19	4300	0	141
19	4344	0	141
19	4352	0	141
19	6352	0	141
19	6424	0	141
19	6528	0	141
19	6752	0	141
19	6980	0	141
19	7376	0	141
19	9664	0	144
19	11408	0	144
19	14744	0	144
20	24	0	21
20	617	0	119
20	620	0	119
20	944	0	122
20	1110	0	125
20	2376	0	136
20	3360	0	138
20	5940	0	141
20	6364	0	141
20	6420	0	141
20	6864	0	141
20	6916	0	141
20	7352	0	141
20	9624	0	144
20	9648	0	144
20	12512	0	144
21	25	0	22
21	498	0	117
21	624	0	119
21	829	0	120
21	967	0	122
21	1456	0	133
21	2090	0	136
21	2108	0	136
21	2406	0	136
21	2658	0	136
21	2700	0	136
21	2724	0	136
21	3364	0	138
21	3428	0	138
21	4312	0	141
21	6264	0	141
21	6372	0	141
21	6416	0	141
21	6744	0	141
21	6868	0	141
21	9592	0	144
21	9640	0	144
21	11112	0	144
21	11232	0	144
21	11264	0	144
21	11464	0	144
21	12624	0	144
21	12928	0	144
21	12952	0	144
21	14896	0	144
21	14928	0	144
21	14944	0	144
22	26	0	23
22	172	0	86
22	179	0	89
22	632	0	120
22	1296	0	133
22	2728	0	136
22	3412	0	138
22	3452	0	138
22	4332	0	141
22	4512	0	141
22	6384	0	141
22	6404	0	141
22	6948	0	141
22	6996	0	141
22	7328	0	141
22	11144	0	144
22	11448	0	144
22	12568	0	144
22	12760	0	144
22	12920	0	144
23	27	0	24
23	29	0	25
23	177	0	88
23	1182	0	126
23	1304	0	133
23	1458	0	133
23	2082	0	136
23	2358	0	136
23	2584	0	136
23	2664	0	136
23	2726	0	136
23	3392	0	138
23	4696	0	141
23	4704	0	141
23	5952	0	141
23	9696	0	144
23	9736	0	144
23	11056	0	144
23	11128	0	144
23	11168	0	144
23	11224	0	144
23	11352	0	144
23	11400	0	144
23	12496	0	144
23	12840	0	144
23	12984	0	144
23	14776	0	144
23	14872	0	144
24	28	0	25
24	30	0	25
24	97	0	60
24	218	0	103
24	236	0	106
24	616	0	119
24	769	0	120
24	825	0	120
24	903	0	121
24	1056	0	123
24	1178	0	126
24	1286	0	133
24	2398	0	136
24	2586	0	136
24	2668	0	136
24	2706	0	136
24	3356	0	138
24	3476	0	138
24	3560	0	141
24	4524	0	141
24	4532	0	141
24	4980	0	141
24	6240	0	141
24	6740	0	141
24	6860	0	141
24	9744	0	144
24	10560	0	144
24	11896	0	144
24	12712	0	144
24	12904	0	144
25	31	0	26
25	103	0	64
25	826	0	120
25	901	0	121
25	972	0	123
25	1048	0	123
25	1088	0	124
25	1102	0	125
25	1306	0	133
25	2380	0	136
25	2722	0	136
25	3352	0	138
25	3400	0	138
25	3440	0	138
25	3472	0	138
25	4304	0	141
25	4520	0	141
25	4540	0	141
25	5964	0	141
25	6272	0	141
25	6280	0	141
25	6464	0	141
25	6472	0	141
25	11008	0	144
25	11312	0	144
25	11360	0	144
25	11512	0	144
25	12528	0	144
25	12832	0	144
25	12912	0	144
25	14760	0	144
26	32	0	27
26	98	0	60
26	171	0	86
26	173	0	86
26	970	0	123
26	1052	0	123
26	1308	0	133
26	1486	0	133
26	2068	0	136
26	2354	0	136
26	2392	0	136
26	3388	0	138
26	3912	0	141
26	4508	0	141
26	4528	0	141
26	4672	0	141
26	5932	0	141
26	6344	0	141
26	7312	0	141
26	7360	0	141
26	7400	0	141
26	9168	0	144
26	9632	0	144
26	11096	0	144
26	11200	0	144
26	11216	0	144
26	11240	0	144
26	11288	0	144
26	12752	0	144
26	12856	0	144
26	12872	0	144
26	12944	0	144
26	14640	0	144
27	33	0	28
27	64	0	48
27	81	0	56
27	96	0	60
27	112	0	69
27	270	0	107
27	288	0	109
27	291	0	109
27	494	0	117
27	542	0	119
27	674	0	120
27	739	0	120
27	804	0	120
27	819	0	120
27	875	0	121
27	906	0	121
27	1312	0	133
27	1396	0	133
27	1494	0	133
27	1738	0	133
27	1804	0	133
27	1910	0	136
27	2066	0	136
27	2116	0	136
27	2186	0	136
27	2318	0	136
27	2350	0	136
27	2394	0	136
27	2536	0	136
27	2590	0	136
27	2774	0	136
27	3076	0	138
27	3832	0	141
27	4224	0	141
27	4780	0	141
27	4844	0	141
27	5440	0	141
27	5512	0	141
27	5636	0	141
27	6788	0	141
27	7072	0	141
27	7160	0	141
27	9064	0	144
27	9512	0	144
27	10576	0	144
27	11696	0	144
27	12128	0	144
27	13064	0	144
27	14632	0	144
27	14968	0	144
27	15592	0	144
27	16024	0	144
28	34	0	29
28	153	0	83
28	273	0	108
28	329	0	111
28	398	0	116
28	507	0	119
28	516	0	119
28	838	0	121
28	866	0	121
28	1196	0	126
28	1346	0	133
28	1434	0	133
28	1498	0	133
28	1678	0	133
28	1748	0	133
28	1894	0	134
28	1932	0	136
28	2030	0	136
28	2242	0	136
28	2306	0	136
28	2852	0	138
28	2916	0	138
28	2952	0	138
28	3612	0	141
28	3656	0	141
28	3944	0	141
28	4072	0	141
28	4168	0	141
28	4284	0	141
28	4484	0	141
28	4636	0	141
28	4768	0	141
28	5376	0	141
28	6480	0	141
28	6652	0	141
28	7272	0	141
28	7552	0	141
28	8008	0	141
28	8912	0	141
28	9952	0	144
28	10328	0	144
28	10952	0	144
28	11792	0	144
28	13352	0	144
28	14592	0	144
28	14992	0	144
29	35	0	30
29	122	0	73
29	213	0	101
29	364	0	114
29	466	0	116
29	541	0	119
29	544	0	119
29	612	0	119
29	746	0	120
29	876	0	121
29	882	0	121
29	885	0	121
29	894	0	121
29	910	0	121
29	1314	0	133
29	1324	0	133
29	1636	0	133
29	1726	0	133
29	1746	0	133
29	1782	0	133
29	1900	0	135
29	1918	0	136
29	2344	0	136
29	2518	0	136
29	2644	0	136
29	2854	0	138
29	2886	0	138
29	3052	0	138
29	3180	0	138
29	4152	0	141
29	5088	0	141
29	5200	0	141
29	5412	0	141
29	8176	0	141
29	11808	0	144
29	12104	0	144
29	13024	0	144
29	13720	0	144
29	13776	0	144
29	13880	0	144
29	14192	0	144
29	14600	0	144
29	15144	0	144
29	15544	0	144
29	15656	0	144
29	15784	0	144
30	37	0	31
30	44	0	35
30	87	0	57
30	285	0	109
30	371	0	115
30	450	0	116
30	476	0	116
30	527	0	119
30	587	0	119
30	670	0	120
30	934	0	122
30	990	0	123
30	992	0	123
30	995	0	123
30	1360	0	133
30	2290	0	136
30	2946	0	138
30	3116	0	138
30	3136	0	138
30	3332	0	138
30	3700	0	141
30	4740	0	141
30	4944	0	141
30	5096	0	141
30	5120	0	141
30	5128	0	141
30	5756	0	141
30	5864	0	141
30	8704	0	141
30	9392	0	144
30	9416	0	144
30	9440	0	144
30	12032	0	144
31	38	0	32
31	41	0	34
31	43	0	35
31	45	0	35
31	267	0	107
31	9448	0	144
31	10208	0	144
32	39	0	33
33	40	0	34
34	42	0	35
35	46	0	36
35	51	0	39
35	91	0	58
35	452	0	116
35	656	0	120
35	660	0	120
35	808	0	120
35	1858	0	133
35	1944	0	136
35	1974	0	136
35	2998	0	138
35	5540	0	141
35	5576	0	141
35	8096	0	141
35	8688	0	141
35	9432	0	144
35	10832	0	144
35	15880	0	144
36	47	0	37
36	71	0	51
36	132	0	77
36	380	0	115
36	412	0	116
36	432	0	116
36	459	0	116
36	593	0	119
36	672	0	120
36	753	0	120
36	897	0	121
36	1260	0	133
36	1666	0	133
36	1714	0	133
36	1874	0	134
36	1982	0	136
36	2010	0	136
36	3672	0	141
36	3880	0	141
36	4452	0	141
36	4928	0	141
36	5260	0	141
36	5760	0	141
36	6068	0	141
36	7120	0	141
36	7136	0	141
36	8288	0	141
36	8344	0	141
36	10104	0	144
36	11768	0	144
36	13960	0	144
37	48	0	38
37	89	0	57
37	379	0	115
37	458	0	116
37	707	0	120
37	933	0	122
37	1010	0	123
37	1252	0	133
37	1848	0	133
37	1980	0	136
37	2836	0	136
37	3324	0	138
37	5148	0	141
37	8056	0	141
37	8088	0	141
37	10392	0	144
37	10808	0	144
38	49	0	39
38	53	0	39
38	205	0	98
38	225	0	104
38	256	0	107
38	338	0	112
38	530	0	119
38	653	0	120
38	655	0	120
38	1238	0	131
38	2132	0	136
38	2150	0	136
38	2176	0	136
38	2334	0	136
38	2456	0	136
38	2840	0	136
38	3312	0	138
38	3704	0	141
38	3960	0	141
38	4460	0	141
38	4468	0	141
38	4868	0	141
38	4940	0	141
38	5024	0	141
38	5144	0	141
38	5252	0	141
38	5652	0	141
38	5740	0	141
38	5800	0	141
38	5840	0	141
38	6812	0	141
38	7512	0	141
38	7600	0	141
38	7864	0	141
38	8552	0	141
38	9344	0	144
38	10200	0	144
38	10400	0	144
38	10904	0	144
38	13400	0	144
38	13992	0	144
38	14448	0	144
39	54	0	40
39	94	0	59
39	211	0	101
39	354	0	113
39	464	0	116
39	510	0	119
39	521	0	119
39	673	0	120
39	699	0	120
39	725	0	120
39	816	0	120
39	938	0	122
39	1128	0	126
39	1142	0	126
39	1618	0	133
39	1908	0	136
39	2000	0	136
39	2180	0	136
39	2504	0	136
39	2790	0	136
39	2814	0	136
39	2880	0	138
39	3160	0	138
39	3168	0	138
39	3668	0	141
39	3764	0	141
39	3976	0	141
39	4064	0	141
39	4412	0	141
39	5012	0	141
39	5420	0	141
39	5656	0	141
39	5684	0	141
39	6784	0	141
39	7016	0	141
39	7280	0	141
39	7672	0	141
39	7936	0	141
39	8104	0	141
39	8472	0	141
39	8608	0	141
39	9136	0	144
39	9976	0	144
39	10608	0	144
39	11880	0	144
39	12264	0	144
39	12368	0	144
39	13104	0	144
40	55	0	41
40	77	0	55
40	164	0	85
40	343	0	112
40	393	0	116
40	755	0	120
40	758	0	120
40	784	0	120
40	788	0	120
40	989	0	123
40	1902	0	135
40	2314	0	136
40	2608	0	136
40	2784	0	136
40	2808	0	136
40	2950	0	138
40	3240	0	138
40	3252	0	138
40	4144	0	141
40	4804	0	141
40	5176	0	141
40	5352	0	141
40	5796	0	141
40	5828	0	141
40	6040	0	141
40	7768	0	141
40	8632	0	141
40	9112	0	144
40	10360	0	144
40	10648	0	144
40	11840	0	144
40	13376	0	144
40	13712	0	144
40	13728	0	144
40	13792	0	144
41	57	0	42
41	65	0	48
41	359	0	113
41	389	0	116
41	549	0	119
41	581	0	119
41	684	0	120
41	785	0	120
41	803	0	120
41	883	0	121
41	1380	0	133
41	1402	0	133
41	1478	0	133
41	1670	0	133
41	1718	0	133
41	1818	0	133
41	1888	0	134
41	1966	0	136
41	2044	0	136
41	2230	0	136
41	2512	0	136
41	3232	0	138
41	4012	0	141
41	4028	0	141
41	4464	0	141
41	4472	0	141
41	4624	0	141
41	4796	0	141
41	4832	0	141
41	4848	0	141
41	5748	0	141
41	6036	0	141
41	8304	0	141
41	8712	0	141
41	8960	0	144
41	10616	0	144
41	11752	0	144
41	11856	0	144
41	12312	0	144
41	12360	0	144
41	14280	0	144
41	14440	0	144
41	15528	0	144
41	15848	0	144
42	58	0	43
42	145	0	81
42	374	0	115
42	474	0	116
42	563	0	119
42	786	0	120
42	929	0	121
42	1242	0	131
42	1968	0	136
42	1994	0	136
42	2012	0	136
42	2018	0	136
42	2052	0	136
42	2130	0	136
42	2172	0	136
42	2232	0	136
42	2830	0	136
42	2996	0	138
42	3164	0	138
42	3876	0	141
42	4140	0	141
42	4856	0	141
42	4872	0	141
42	5224	0	141
42	5820	0	141
42	6644	0	141
42	8048	0	141
42	8336	0	141
42	9408	0	144
42	9424	0	144
42	10368	0	144
42	10472	0	144
42	11648	0	144
43	59	0	44
43	149	0	83
43	214	0	101
43	322	0	111
43	327	0	111
43	395	0	116
43	419	0	116
43	472	0	116
43	490	0	117
43	577	0	119
43	698	0	120
43	812	0	120
43	867	0	121
43	874	0	121
43	877	0	121
43	911	0	121
43	1038	0	123
43	1200	0	126
43	1342	0	133
43	1544	0	133
43	1992	0	136
43	2212	0	136
43	2250	0	136
43	2300	0	136
43	2328	0	136
43	2454	0	136
43	2932	0	138
43	2988	0	138
43	3040	0	138
43	3176	0	138
43	3284	0	138
43	3688	0	141
43	3948	0	141
43	4756	0	141
43	4864	0	141
43	5872	0	141
43	5880	0	141
43	5996	0	141
43	6012	0	141
43	7520	0	141
43	7632	0	141
43	7744	0	141
43	7888	0	141
43	8312	0	141
43	8904	0	141
43	10296	0	144
43	10960	0	144
43	11640	0	144
43	12080	0	144
43	12296	0	144
43	13688	0	144
43	13928	0	144
43	14208	0	144
43	14272	0	144
43	14696	0	144
44	60	0	45
44	238	0	106
44	246	0	107
44	381	0	115
44	408	0	116
44	433	0	116
44	654	0	120
44	898	0	121
44	940	0	122
44	1030	0	123
44	1378	0	133
44	1612	0	133
44	1892	0	134
44	1986	0	136
44	2184	0	136
44	2324	0	136
44	2444	0	136
44	2474	0	136
44	2850	0	138
44	3616	0	141
44	3664	0	141
44	3760	0	141
44	3844	0	141
44	3852	0	141
44	4628	0	141
44	4828	0	141
44	5604	0	141
44	5688	0	141
44	6052	0	141
44	6572	0	141
44	9248	0	144
44	9776	0	144
44	11624	0	144
44	11672	0	144
44	11736	0	144
44	12384	0	144
44	13144	0	144
44	14040	0	144
45	61	0	46
45	74	0	53
45	107	0	66
45	141	0	79
45	143	0	80
45	232	0	105
45	305	0	110
45	307	0	110
45	342	0	112
45	344	0	112
45	435	0	116
45	488	0	117
45	582	0	119
45	643	0	120
45	779	0	120
45	799	0	120
45	849	0	121
45	1134	0	126
45	1150	0	126
45	1234	0	131
45	1412	0	133
45	1520	0	133
45	1530	0	133
45	1582	0	133
45	1626	0	133
45	1658	0	133
45	1758	0	133
45	1796	0	133
45	2120	0	136
45	2124	0	136
45	2272	0	136
45	2448	0	136
45	2528	0	136
45	2796	0	136
45	3748	0	141
45	4088	0	141
45	4260	0	141
45	5076	0	141
45	5408	0	141
45	5624	0	141
45	5788	0	141
45	6112	0	141
45	6580	0	141
45	6600	0	141
45	6672	0	141
45	6692	0	141
45	6712	0	141
45	6844	0	141
45	7896	0	141
45	7976	0	141
45	9128	0	144
45	9992	0	144
45	10312	0	144
45	10760	0	144
45	11800	0	144
45	12016	0	144
45	12440	0	144
45	12456	0	144
45	13032	0	144
45	13944	0	144
45	14400	0	144
45	14424	0	144
45	14480	0	144
45	14528	0	144
46	62	0	47
46	115	0	70
46	301	0	110
46	689	0	120
46	694	0	120
46	733	0	120
46	737	0	120
46	774	0	120
46	780	0	120
46	1318	0	133
46	1732	0	133
46	1742	0	133
46	1772	0	133
46	2642	0	136
46	3624	0	141
46	3652	0	141
46	4392	0	141
46	4580	0	141
46	4604	0	141
46	7832	0	141
46	8152	0	141
46	9096	0	144
46	9544	0	144
46	10528	0	144
46	15176	0	144
46	15720	0	144
46	15768	0	144
47	63	0	48
47	80	0	56
47	125	0	75
47	290	0	109
47	482	0	116
47	732	0	120
47	1504	0	133
47	1576	0	133
47	1736	0	133
47	1780	0	133
47	1928	0	136
47	3644	0	141
47	6620	0	141
47	6856	0	141
47	12120	0	144
47	12688	0	144
47	13056	0	144
47	14088	0	144
47	15704	0	144
48	67	0	49
48	281	0	109
48	325	0	111
48	332	0	111
48	355	0	113
48	710	0	120
48	820	0	120
48	915	0	121
48	1136	0	126
48	1168	0	126
48	1426	0	133
48	1790	0	133
48	1854	0	133
48	2008	0	136
48	2562	0	136
48	2986	0	138
48	3104	0	138
48	3692	0	141
48	3932	0	141
48	4280	0	141
48	4764	0	141
48	4820	0	141
48	5060	0	141
48	5456	0	141
48	5524	0	141
48	5552	0	141
48	5732	0	141
48	6056	0	141
48	6176	0	141
48	7656	0	141
48	8944	0	144
48	9792	0	144
48	10088	0	144
48	10600	0	144
48	11552	0	144
48	12184	0	144
48	13288	0	144
48	13952	0	144
48	14432	0	144
48	15336	0	144
49	68	0	50
49	85	0	57
49	111	0	69
49	130	0	76
49	163	0	85
49	247	0	107
49	339	0	112
49	347	0	112
49	443	0	116
49	469	0	116
49	579	0	119
49	762	0	120
49	853	0	121
49	871	0	121
49	889	0	121
49	1514	0	133
49	1594	0	133
49	1638	0	133
49	1656	0	133
49	2342	0	136
49	2632	0	136
49	2976	0	138
49	3776	0	141
49	3860	0	141
49	3896	0	141
49	4000	0	141
49	4008	0	141
49	4024	0	141
49	4044	0	141
49	4080	0	141
49	4216	0	141
49	4240	0	141
49	4432	0	141
49	4932	0	141
49	5228	0	141
49	5916	0	141
49	6100	0	141
49	6628	0	141
49	7536	0	141
49	8040	0	141
49	8272	0	141
49	8528	0	141
49	9328	0	144
49	9880	0	144
49	9960	0	144
49	10096	0	144
49	12208	0	144
49	13584	0	144
49	14312	0	144
49	14328	0	144
50	70	0	51
50	88	0	57
50	373	0	115
50	529	0	119
50	657	0	120
50	1012	0	123
50	1022	0	123
50	1258	0	133
50	1870	0	134
50	1904	0	136
50	1976	0	136
50	2164	0	136
50	2548	0	136
50	3120	0	138
50	5172	0	141
50	5272	0	141
50	5824	0	141
50	5860	0	141
50	10456	0	144
50	12056	0	144
50	12344	0	144
51	72	0	52
51	86	0	57
51	146	0	81
51	226	0	104
51	254	0	107
51	258	0	107
51	361	0	113
51	394	0	116
51	403	0	116
51	473	0	116
51	561	0	119
51	659	0	120
51	661	0	120
51	666	0	120
51	706	0	120
51	1400	0	133
51	1820	0	133
51	1906	0	136
51	2330	0	136
51	2452	0	136
51	2550	0	136
51	2826	0	136
51	3336	0	138
51	3592	0	141
51	3856	0	141
51	4016	0	141
51	4736	0	141
51	4752	0	141
51	5124	0	141
51	5544	0	141
51	5580	0	141
51	5764	0	141
51	6048	0	141
51	6564	0	141
51	7680	0	141
51	8200	0	141
51	8480	0	141
51	8664	0	141
51	10032	0	144
51	10136	0	144
51	10840	0	144
51	13096	0	144
51	13976	0	144
51	14248	0	144
52	73	0	53
52	255	0	107
52	411	0	116
52	423	0	116
52	471	0	116
52	568	0	119
52	705	0	120
52	764	0	120
52	870	0	121
52	1202	0	126
52	1432	0	133
52	1444	0	133
52	1556	0	133
52	1684	0	133
52	1712	0	133
52	1936	0	136
52	2748	0	136
52	2984	0	138
52	3752	0	141
52	3884	0	141
52	3980	0	141
52	4380	0	141
52	4748	0	141
52	4904	0	141
52	5520	0	141
52	5660	0	141
52	5876	0	141
52	6592	0	141
52	7584	0	141
52	7872	0	141
52	8384	0	141
52	10056	0	144
52	11576	0	144
52	13232	0	144
52	13480	0	144
52	13904	0	144
52	15512	0	144
52	15976	0	144
53	75	0	54
53	237	0	106
53	352	0	113
53	396	0	116
53	512	0	119
53	517	0	119
53	597	0	119
53	700	0	120
53	768	0	120
53	835	0	121
53	899	0	121
53	1438	0	133
53	1568	0	133
53	1724	0	133
53	1830	0	133
53	1880	0	134
53	1964	0	136
53	2214	0	136
53	2260	0	136
53	2264	0	136
53	2530	0	136
53	2588	0	136
53	2598	0	136
53	2628	0	136
53	2746	0	136
53	3900	0	141
53	3988	0	141
53	4220	0	141
53	4296	0	141
53	4712	0	141
53	4728	0	141
53	4920	0	141
53	5388	0	141
53	6540	0	141
53	6632	0	141
53	6720	0	141
53	7024	0	141
53	7568	0	141
53	9160	0	144
53	9920	0	144
53	10696	0	144
53	10776	0	144
53	11824	0	144
53	12240	0	144
53	13264	0	144
53	13296	0	144
53	14232	0	144
53	14408	0	144
53	14472	0	144
53	14616	0	144
53	15208	0	144
53	15560	0	144
54	76	0	55
54	84	0	57
54	150	0	83
54	240	0	106
54	245	0	107
54	409	0	116
54	417	0	116
54	550	0	119
54	665	0	120
54	685	0	120
54	690	0	120
54	743	0	120
54	852	0	121
54	879	0	121
54	892	0	121
54	907	0	121
54	960	0	122
54	1032	0	123
54	1036	0	123
54	1162	0	126
54	1232	0	131
54	1276	0	133
54	1546	0	133
54	1644	0	133
54	1668	0	133
54	1716	0	133
54	1958	0	136
54	1996	0	136
54	2040	0	136
54	2304	0	136
54	2514	0	136
54	2602	0	136
54	2638	0	136
54	2928	0	138
54	3800	0	141
54	3892	0	141
54	4256	0	141
54	4616	0	141
54	5084	0	141
54	5248	0	141
54	6008	0	141
54	6148	0	141
54	6488	0	141
54	6660	0	141
54	7576	0	141
54	7904	0	141
54	7944	0	141
54	8000	0	141
54	8136	0	141
54	8488	0	141
54	9552	0	144
54	9848	0	144
54	10480	0	144
54	10584	0	144
54	10736	0	144
54	11584	0	144
54	12288	0	144
54	13176	0	144
54	15128	0	144
54	15576	0	144
55	79	0	56
55	116	0	70
55	127	0	75
55	216	0	102
55	243	0	107
55	289	0	109
55	298	0	109
55	600	0	119
55	603	0	119
55	682	0	120
55	738	0	120
55	773	0	120
55	880	0	121
55	978	0	123
55	1322	0	133
55	1730	0	133
55	1740	0	133
55	1832	0	133
55	2534	0	136
55	2962	0	138
55	3072	0	138
55	3640	0	141
55	4092	0	141
55	4100	0	141
55	4588	0	141
55	5032	0	141
55	6612	0	141
55	8128	0	141
55	8160	0	141
55	9272	0	144
55	9528	0	144
55	10176	0	144
55	10512	0	144
55	12136	0	144
55	14624	0	144
55	16120	0	144
56	82	0	57
56	162	0	85
56	283	0	109
56	315	0	111
56	345	0	112
56	420	0	116
56	567	0	119
56	702	0	120
56	726	0	120
56	766	0	120
56	840	0	121
56	857	0	121
56	1280	0	133
56	1604	0	133
56	1650	0	133
56	2470	0	136
56	2540	0	136
56	2556	0	136
56	2968	0	138
56	2980	0	138
56	3968	0	141
56	4232	0	141
56	4276	0	141
56	4488	0	141
56	5424	0	141
56	5476	0	141
56	6060	0	141
56	6700	0	141
56	7184	0	141
56	8464	0	141
56	8896	0	141
56	9048	0	144
56	9376	0	144
56	10048	0	144
56	10248	0	144
56	11720	0	144
56	13832	0	144
56	14120	0	144
56	14464	0	144
56	15320	0	144
56	15400	0	144
56	15944	0	144
57	90	0	58
57	367	0	114
57	431	0	116
57	453	0	116
57	528	0	119
57	671	0	120
57	997	0	123
57	1004	0	123
57	1008	0	123
57	2056	0	136
57	2174	0	136
57	2838	0	136
57	4888	0	141
57	5140	0	141
57	5152	0	141
57	5168	0	141
57	10424	0	144
57	10448	0	144
58	93	0	59
58	212	0	101
58	265	0	107
58	306	0	110
58	439	0	116
58	478	0	116
58	548	0	119
58	686	0	120
58	719	0	120
58	721	0	120
58	813	0	120
58	868	0	121
58	923	0	121
58	979	0	123
58	1016	0	123
58	1166	0	126
58	1354	0	133
58	1610	0	133
58	1702	0	133
58	2048	0	136
58	2220	0	136
58	2502	0	136
58	2510	0	136
58	2754	0	136
58	2764	0	136
58	2846	0	137
58	3108	0	138
58	3152	0	138
58	3264	0	138
58	3992	0	141
58	4060	0	141
58	4228	0	141
58	4384	0	141
58	4788	0	141
58	5004	0	141
58	5348	0	141
58	5452	0	141
58	5556	0	141
58	5628	0	141
58	5724	0	141
58	6544	0	141
58	6776	0	141
58	7064	0	141
58	11680	0	144
58	13432	0	144
58	13616	0	144
58	13856	0	144
58	14024	0	144
58	14392	0	144
59	95	0	60
59	117	0	70
59	129	0	76
59	155	0	83
59	161	0	85
59	280	0	109
59	427	0	116
59	437	0	116
59	508	0	119
59	573	0	119
59	604	0	119
59	649	0	120
59	757	0	120
59	776	0	120
59	823	0	120
59	847	0	121
59	976	0	123
59	1390	0	133
59	1408	0	133
59	1634	0	133
59	1674	0	133
59	1792	0	133
59	1798	0	133
59	1806	0	133
59	1940	0	136
59	2022	0	136
59	2168	0	136
59	2268	0	136
59	2496	0	136
59	2788	0	136
59	3584	0	141
59	3816	0	141
59	4120	0	141
59	4608	0	141
59	5028	0	141
59	5528	0	141
59	5728	0	141
59	6020	0	141
59	6188	0	141
59	6824	0	141
59	8584	0	141
59	8736	0	141
59	8864	0	141
59	8968	0	144
59	10000	0	144
59	11664	0	144
59	11728	0	144
59	13320	0	144
59	13384	0	144
59	14336	0	144
59	16296	0	144
60	99	0	61
60	182	0	91
60	192	0	94
60	194	0	94
60	627	0	119
60	634	0	120
60	636	0	120
60	2388	0	136
60	2402	0	136
60	2408	0	136
60	3372	0	138
60	4548	0	141
60	4676	0	141
60	6268	0	141
60	6300	0	141
60	6316	0	141
60	6428	0	141
60	6532	0	141
60	6940	0	141
60	6960	0	141
60	6988	0	141
60	11344	0	144
60	11488	0	144
60	12576	0	144
61	100	0	62
61	169	0	86
61	2074	0	136
61	2084	0	136
61	2366	0	136
61	2386	0	136
61	2410	0	136
61	2414	0	136
61	6232	0	141
61	6936	0	141
61	9208	0	144
61	9576	0	144
61	11024	0	144
61	11176	0	144
61	12744	0	144
61	12848	0	144
61	12992	0	144
62	101	0	63
62	183	0	91
62	497	0	117
62	2076	0	136
62	2096	0	136
62	2412	0	136
62	2566	0	136
62	3368	0	138
62	3424	0	138
62	3436	0	138
62	3444	0	138
62	4680	0	141
62	6224	0	141
62	11336	0	144
62	12560	0	144
62	12592	0	144
62	12792	0	144
62	14808	0	144
63	102	0	64
63	168	0	86
63	170	0	86
63	623	0	119
63	630	0	119
63	1078	0	124
63	1104	0	125
63	2364	0	136
63	2384	0	136
63	2434	0	136
63	2570	0	136
63	2574	0	136
63	2662	0	136
63	2712	0	136
63	3464	0	138
63	5960	0	141
63	6260	0	141
63	6396	0	141
63	6460	0	141
63	6872	0	141
63	7320	0	141
63	7392	0	141
63	7416	0	141
63	7432	0	141
63	11048	0	144
63	11440	0	144
63	12816	0	144
63	14832	0	144
64	104	0	65
64	166	0	85
64	199	0	97
64	421	0	116
64	520	0	119
64	676	0	120
64	914	0	121
64	926	0	121
64	1126	0	126
64	1144	0	126
64	1418	0	133
64	1788	0	133
64	1950	0	136
64	2190	0	136
64	2848	0	137
64	3032	0	138
64	4776	0	141
64	6444	0	141
64	7040	0	141
64	7288	0	141
64	8016	0	141
64	9072	0	144
64	9224	0	144
64	9568	0	144
64	9832	0	144
64	10880	0	144
64	11528	0	144
64	12088	0	144
64	14672	0	144
64	15064	0	144
64	16072	0	144
65	105	0	66
65	202	0	98
65	266	0	107
65	268	0	107
65	313	0	111
65	407	0	116
65	484	0	116
65	489	0	117
65	595	0	119
65	668	0	120
65	1350	0	133
65	1440	0	133
65	1524	0	133
65	1532	0	133
65	1632	0	133
65	1654	0	133
65	1660	0	133
65	1988	0	136
65	2228	0	136
65	2498	0	136
65	3212	0	138
65	3684	0	141
65	3716	0	141
65	4108	0	141
65	4116	0	141
65	4172	0	141
65	4456	0	141
65	4648	0	141
65	5184	0	141
65	5464	0	141
65	5888	0	141
65	5920	0	141
65	6080	0	141
65	6180	0	141
65	6792	0	141
65	7928	0	141
65	8416	0	141
65	8840	0	141
65	8976	0	144
65	9360	0	144
65	9888	0	144
65	10008	0	144
65	10896	0	144
65	11536	0	144
65	13192	0	144
65	15832	0	144
66	108	0	67
66	165	0	85
66	446	0	116
66	461	0	116
66	531	0	119
66	566	0	119
66	606	0	119
66	687	0	120
66	717	0	120
66	872	0	121
66	888	0	121
66	956	0	122
66	988	0	123
66	1160	0	126
66	1208	0	126
66	1372	0	133
66	1564	0	133
66	1628	0	133
66	1800	0	133
66	2004	0	136
66	2144	0	136
66	2462	0	136
66	2480	0	136
66	2524	0	136
66	3708	0	141
66	3724	0	141
66	3820	0	141
66	3872	0	141
66	4136	0	141
66	4272	0	141
66	4436	0	141
66	4448	0	141
66	4860	0	141
66	4960	0	141
66	5192	0	141
66	5448	0	141
66	5640	0	141
66	5744	0	141
66	6124	0	141
66	7112	0	141
66	8112	0	141
66	8352	0	141
66	8744	0	141
66	8808	0	141
66	8880	0	141
66	8952	0	144
66	9768	0	144
66	9784	0	144
66	9840	0	144
66	10344	0	144
66	11992	0	144
66	12424	0	144
66	13272	0	144
66	13520	0	144
66	13560	0	144
66	14256	0	144
66	15224	0	144
67	109	0	68
67	120	0	72
67	244	0	107
67	251	0	107
67	330	0	111
67	382	0	115
67	608	0	119
67	692	0	120
67	696	0	120
67	701	0	120
67	728	0	120
67	734	0	120
67	789	0	120
67	858	0	121
67	860	0	121
67	1264	0	133
67	1394	0	133
67	1468	0	133
67	1542	0	133
67	1566	0	133
67	1770	0	133
67	1934	0	136
67	2222	0	136
67	2262	0	136
67	2316	0	136
67	2346	0	136
67	2490	0	136
67	2508	0	136
67	2770	0	136
67	2882	0	138
67	2908	0	138
67	3580	0	141
67	3620	0	141
67	4656	0	141
67	5064	0	141
67	5404	0	141
67	5484	0	141
67	7008	0	141
67	7176	0	141
67	7504	0	141
67	7528	0	141
67	7760	0	141
67	7824	0	141
67	8168	0	141
67	8368	0	141
67	8440	0	141
67	8720	0	141
67	10352	0	144
67	10592	0	144
67	11872	0	144
67	12464	0	144
67	12656	0	144
67	13488	0	144
67	14136	0	144
67	14184	0	144
67	14264	0	144
67	14304	0	144
67	14536	0	144
68	110	0	69
68	113	0	69
68	126	0	75
68	302	0	110
68	506	0	119
68	545	0	119
68	611	0	119
68	864	0	121
68	948	0	122
68	1042	0	123
68	1334	0	133
68	1698	0	133
68	1824	0	133
68	2532	0	136
68	2650	0	136
68	3080	0	138
68	4160	0	141
68	4360	0	141
68	4596	0	141
68	4612	0	141
68	4964	0	141
68	5044	0	141
68	7200	0	141
68	7544	0	141
68	8120	0	141
68	9264	0	144
68	9808	0	144
68	10752	0	144
68	13440	0	144
68	13920	0	144
68	15192	0	144
68	15432	0	144
68	15624	0	144
68	15752	0	144
68	16040	0	144
68	16104	0	144
69	114	0	70
69	397	0	116
69	479	0	116
69	538	0	119
69	602	0	119
69	745	0	120
69	760	0	120
69	772	0	120
69	1154	0	126
69	1174	0	126
69	1734	0	133
69	1776	0	133
69	1920	0	136
69	1924	0	136
69	1930	0	136
69	2140	0	136
69	2520	0	136
69	3792	0	141
69	4576	0	141
69	4916	0	141
69	7840	0	141
69	9520	0	144
69	10552	0	144
69	13072	0	144
69	13600	0	144
69	13632	0	144
69	14144	0	144
70	118	0	71
70	234	0	106
70	609	0	119
70	680	0	120
70	713	0	120
70	715	0	120
70	736	0	120
70	781	0	120
70	824	0	120
70	952	0	122
70	1336	0	133
70	1506	0	133
70	1538	0	133
70	1580	0	133
70	1676	0	133
70	1774	0	133
70	2138	0	136
70	2274	0	136
70	2752	0	136
70	2884	0	138
70	2922	0	138
70	2960	0	138
70	3648	0	141
70	4388	0	141
70	9152	0	144
70	12232	0	144
70	12648	0	144
70	13256	0	144
70	14096	0	144
70	14608	0	144
71	119	0	72
71	135	0	77
71	241	0	106
71	351	0	113
71	385	0	116
71	554	0	119
71	646	0	120
71	759	0	120
71	793	0	120
71	806	0	120
71	836	0	121
71	909	0	121
71	916	0	121
71	921	0	121
71	951	0	122
71	1278	0	133
71	1376	0	133
71	1500	0	133
71	1518	0	133
71	1990	0	136
71	2204	0	136
71	2238	0	136
71	2296	0	136
71	2446	0	136
71	2482	0	136
71	3788	0	141
71	3824	0	141
71	5068	0	141
71	5608	0	141
71	5676	0	141
71	5812	0	141
71	5924	0	141
71	6116	0	141
71	7264	0	141
71	8504	0	141
71	8624	0	141
71	8640	0	141
71	9008	0	144
71	9320	0	144
71	9560	0	144
71	9968	0	144
71	10168	0	144
71	10688	0	144
71	11712	0	144
71	11936	0	144
71	12224	0	144
71	13280	0	144
71	13504	0	144
71	13536	0	144
71	14344	0	144
71	15480	0	144
71	16056	0	144
71	16216	0	144
72	121	0	73
72	310	0	111
72	348	0	112
72	418	0	116
72	532	0	119
72	537	0	119
72	547	0	119
72	552	0	119
72	578	0	119
72	598	0	119
72	731	0	120
72	748	0	120
72	846	0	121
72	954	0	122
72	1158	0	126
72	1700	0	133
72	2526	0	136
72	2974	0	138
72	3060	0	138
72	4164	0	141
72	5244	0	141
72	6140	0	141
72	7560	0	141
72	10520	0	144
72	10568	0	144
72	12704	0	144
72	13456	0	144
72	13608	0	144
72	13624	0	144
72	14072	0	144
72	14104	0	144
72	14416	0	144
72	15800	0	144
72	16152	0	144
73	123	0	74
73	613	0	119
73	881	0	121
73	1214	0	126
73	1226	0	131
73	1320	0	133
73	1916	0	136
73	2800	0	136
73	3244	0	138
73	4264	0	141
73	5356	0	141
73	5588	0	141
73	12672	0	144
73	13040	0	144
73	13768	0	144
73	13784	0	144
74	124	0	75
74	300	0	110
74	480	0	116
74	546	0	119
74	614	0	119
74	1316	0	133
74	1328	0	133
74	1778	0	133
74	1922	0	136
74	1926	0	136
74	2648	0	136
74	4600	0	141
74	5036	0	141
74	9536	0	144
74	10496	0	144
74	12112	0	144
75	128	0	76
75	693	0	120
75	848	0	121
75	977	0	123
75	1728	0	133
75	1744	0	133
75	1794	0	133
75	2888	0	138
75	2906	0	138
75	3048	0	138
75	3628	0	141
75	3636	0	141
75	5340	0	141
75	5792	0	141
75	9104	0	144
75	10672	0	144
75	12144	0	144
76	131	0	77
76	227	0	104
76	229	0	105
76	261	0	107
76	399	0	116
76	406	0	116
76	438	0	116
76	535	0	119
76	663	0	120
76	754	0	120
76	802	0	120
76	811	0	120
76	1206	0	126
76	1562	0	133
76	1642	0	133
76	1704	0	133
76	2332	0	136
76	2794	0	136
76	3088	0	138
76	3140	0	138
76	3864	0	141
76	4192	0	141
76	5236	0	141
76	5816	0	141
76	6064	0	141
76	6636	0	141
76	6684	0	141
76	6804	0	141
76	7256	0	141
76	8360	0	141
76	8432	0	141
76	8448	0	141
76	8576	0	141
76	9312	0	144
76	9504	0	144
76	10112	0	144
76	11656	0	144
76	12376	0	144
76	14288	0	144
76	15896	0	144
77	139	0	78
77	230	0	105
77	239	0	106
77	365	0	114
77	404	0	116
77	436	0	116
77	441	0	116
77	485	0	116
77	557	0	119
77	810	0	120
77	821	0	120
77	983	0	123
77	1192	0	126
77	1392	0	133
77	1410	0	133
77	1536	0	133
77	1620	0	133
77	1672	0	133
77	2046	0	136
77	2122	0	136
77	2192	0	136
77	2196	0	136
77	2236	0	136
77	2276	0	136
77	2284	0	136
77	2494	0	136
77	2844	0	136
77	2910	0	138
77	2934	0	138
77	3036	0	138
77	3200	0	138
77	3568	0	141
77	4364	0	141
77	4784	0	141
77	5664	0	141
77	6136	0	141
77	6560	0	141
77	6796	0	141
77	7088	0	141
77	7728	0	141
77	8264	0	141
77	11832	0	144
77	12216	0	144
77	13088	0	144
77	14656	0	144
77	15016	0	144
77	15256	0	144
78	140	0	79
78	151	0	83
78	159	0	84
78	311	0	111
78	314	0	111
78	415	0	116
78	434	0	116
78	463	0	116
78	465	0	116
78	513	0	119
78	571	0	119
78	575	0	119
78	648	0	120
78	650	0	120
78	814	0	120
78	817	0	120
78	865	0	121
78	925	0	121
78	955	0	122
78	963	0	122
78	1018	0	123
78	1034	0	123
78	1586	0	133
78	2136	0	136
78	2142	0	136
78	2244	0	136
78	2460	0	136
78	2554	0	136
78	2776	0	136
78	2856	0	138
78	3952	0	141
78	4036	0	141
78	4444	0	141
78	4836	0	141
78	5396	0	141
78	5508	0	141
78	5620	0	141
78	6024	0	141
78	6196	0	141
78	7496	0	141
78	8224	0	141
78	8784	0	141
78	8824	0	141
78	8872	0	141
78	9296	0	144
78	9496	0	144
78	9800	0	144
78	10160	0	144
78	10728	0	144
78	10872	0	144
78	10936	0	144
78	13152	0	144
78	13336	0	144
78	13472	0	144
78	13912	0	144
78	14152	0	144
78	14384	0	144
78	14560	0	144
78	14976	0	144
79	142	0	80
79	551	0	119
79	953	0	122
79	1540	0	133
79	1578	0	133
79	2640	0	136
79	2646	0	136
79	3056	0	138
79	4396	0	141
79	4584	0	141
79	5080	0	141
79	6616	0	141
79	10536	0	144
79	12680	0	144
79	15160	0	144
80	144	0	81
80	468	0	116
80	580	0	119
80	691	0	120
80	783	0	120
80	937	0	122
80	1014	0	123
80	1130	0	126
80	1164	0	126
80	1194	0	126
80	1554	0	133
80	1842	0	133
80	2166	0	136
80	2286	0	136
80	2948	0	138
80	3972	0	141
80	5532	0	141
80	5564	0	141
80	6044	0	141
80	6120	0	141
80	6132	0	141
80	6688	0	141
80	7144	0	141
80	7464	0	141
80	7704	0	141
80	8328	0	141
80	9384	0	144
80	10680	0	144
80	11776	0	144
80	12040	0	144
80	12448	0	144
80	14456	0	144
81	147	0	82
81	402	0	116
81	455	0	116
81	993	0	123
81	1006	0	123
81	1026	0	123
81	2016	0	136
81	2156	0	136
81	2178	0	136
81	3308	0	138
81	3320	0	138
81	4052	0	141
81	5264	0	141
81	7472	0	141
81	9464	0	144
81	10440	0	144
81	12352	0	144
82	148	0	83
82	152	0	83
82	157	0	84
82	286	0	109
82	321	0	111
82	324	0	111
82	357	0	113
82	470	0	116
82	645	0	120
82	798	0	120
82	918	0	121
82	958	0	122
82	1366	0	133
82	1430	0	133
82	1692	0	133
82	1752	0	133
82	2054	0	136
82	2234	0	136
82	2270	0	136
82	2478	0	136
82	2544	0	136
82	2926	0	138
82	2942	0	138
82	3208	0	138
82	3680	0	141
82	3696	0	141
82	4040	0	141
82	4428	0	141
82	4896	0	141
82	5256	0	141
82	5696	0	141
82	5832	0	141
82	6184	0	141
82	6808	0	141
82	7216	0	141
82	7240	0	141
82	7624	0	141
82	7984	0	141
82	8216	0	141
82	8512	0	141
82	8592	0	141
82	8888	0	141
82	8984	0	144
82	9120	0	144
82	10864	0	144
82	11616	0	144
82	12392	0	144
82	13184	0	144
82	13824	0	144
83	156	0	84
83	287	0	109
83	317	0	111
83	337	0	112
83	724	0	120
83	740	0	120
83	869	0	121
83	873	0	121
83	1230	0	131
83	1370	0	133
83	1840	0	133
83	2254	0	136
83	2476	0	136
83	2620	0	136
83	2914	0	138
83	2964	0	138
83	3604	0	141
83	4132	0	141
83	4176	0	141
83	4972	0	141
83	5180	0	141
83	5416	0	141
83	5436	0	141
83	5600	0	141
83	5648	0	141
83	6092	0	141
83	6108	0	141
83	6608	0	141
83	8392	0	141
83	9256	0	144
83	9304	0	144
83	9904	0	144
83	10640	0	144
83	11592	0	144
83	11960	0	144
83	12256	0	144
83	12272	0	144
83	13160	0	144
83	13240	0	144
83	13568	0	144
83	14176	0	144
83	14376	0	144
83	14552	0	144
83	16008	0	144
83	16232	0	144
84	160	0	85
84	279	0	109
84	282	0	109
84	416	0	116
84	422	0	116
84	515	0	119
84	519	0	119
84	644	0	120
84	652	0	120
84	677	0	120
84	704	0	120
84	729	0	120
84	920	0	121
84	975	0	123
84	982	0	123
84	1148	0	126
84	1398	0	133
84	1470	0	133
84	1526	0	133
84	1552	0	133
84	1616	0	133
84	1760	0	133
84	1948	0	136
84	2604	0	136
84	2636	0	136
84	2876	0	138
84	3024	0	138
84	3940	0	141
84	4420	0	141
84	4924	0	141
84	5468	0	141
84	5692	0	141
84	5808	0	141
84	6076	0	141
84	6732	0	141
84	7152	0	141
84	7224	0	141
84	7640	0	141
84	7856	0	141
84	8256	0	141
84	8768	0	141
84	8920	0	142
84	9352	0	144
84	9368	0	144
84	11560	0	144
84	11600	0	144
84	11688	0	144
84	11976	0	144
84	13136	0	144
84	13344	0	144
84	13680	0	144
84	13808	0	144
84	14296	0	144
84	14352	0	144
85	167	0	86
85	628	0	119
85	6440	0	141
85	7424	0	141
85	10984	0	144
85	11016	0	144
85	11184	0	144
85	11480	0	144
85	12736	0	144
85	12800	0	144
86	174	0	87
86	193	0	94
86	831	0	120
86	900	0	121
86	971	0	123
86	1090	0	124
86	1184	0	126
86	1492	0	133
86	2374	0	136
86	2656	0	136
86	2682	0	136
86	2692	0	136
86	2744	0	136
86	3484	0	138
86	3540	0	141
86	3548	0	141
86	4316	0	141
86	5936	0	141
86	6244	0	141
86	6332	0	141
86	6340	0	141
86	6368	0	141
86	6500	0	141
86	6524	0	141
86	6768	0	141
86	12616	0	144
86	12824	0	144
87	175	0	88
87	833	0	121
87	945	0	122
87	947	0	122
87	1108	0	125
87	1310	0	133
87	2356	0	136
87	2654	0	136
87	2680	0	136
87	2708	0	136
87	3920	0	141
87	4356	0	141
87	5988	0	141
87	6252	0	141
87	6764	0	141
87	6880	0	141
87	9656	0	144
87	11104	0	144
87	11208	0	144
87	12504	0	144
87	14736	0	144
88	178	0	89
88	1076	0	124
88	1080	0	124
88	1292	0	133
88	2078	0	136
88	2102	0	136
88	2418	0	136
88	2422	0	136
88	2428	0	136
88	2572	0	136
88	2576	0	136
88	2714	0	136
88	3408	0	138
88	4336	0	141
88	5956	0	141
88	6304	0	141
88	6400	0	141
88	11136	0	144
88	11392	0	144
88	14800	0	144
89	180	0	90
89	184	0	91
89	635	0	120
89	2088	0	136
89	2098	0	136
89	2568	0	136
89	5944	0	141
89	6212	0	141
89	7000	0	141
89	9192	0	144
89	11376	0	144
89	11504	0	144
89	12768	0	144
90	181	0	91
90	187	0	93
90	190	0	94
90	1096	0	125
90	1100	0	125
90	1302	0	133
90	2080	0	136
90	2578	0	136
90	2672	0	136
90	2688	0	136
90	2696	0	136
90	2720	0	136
90	6216	0	141
90	6412	0	141
90	11040	0	144
90	11160	0	144
90	11328	0	144
90	11456	0	144
90	12536	0	144
90	12552	0	144
90	12584	0	144
90	12776	0	144
90	12960	0	144
90	14840	0	144
91	185	0	92
91	622	0	119
91	1290	0	133
91	1294	0	133
91	1300	0	133
91	2382	0	136
91	2432	0	136
91	2716	0	136
91	3448	0	138
91	6408	0	141
91	6956	0	141
91	9704	0	144
91	11080	0	144
91	11152	0	144
91	11320	0	144
91	12784	0	144
91	12976	0	144
91	14768	0	144
92	186	0	93
92	188	0	93
92	633	0	120
92	2100	0	136
92	2420	0	136
92	2718	0	136
92	4552	0	141
92	6308	0	141
92	6944	0	141
92	14792	0	144
93	189	0	94
93	496	0	117
93	625	0	119
93	1082	0	124
93	1092	0	124
93	2104	0	136
93	2362	0	136
93	2368	0	136
93	2404	0	136
93	2416	0	136
93	2660	0	136
93	2686	0	136
93	2690	0	136
93	3380	0	138
93	3420	0	138
93	4348	0	141
93	4516	0	141
93	6228	0	141
93	6284	0	141
93	6436	0	141
93	6932	0	141
93	7408	0	141
93	9176	0	144
93	9200	0	144
93	11120	0	144
93	11496	0	144
93	12600	0	144
93	14784	0	144
93	14856	0	144
93	14952	0	144
94	196	0	95
94	221	0	104
94	499	0	117
94	637	0	120
94	2110	0	136
94	2360	0	136
94	2370	0	136
94	2390	0	136
94	2702	0	136
94	2742	0	136
94	3916	0	141
94	4544	0	141
94	6248	0	141
94	6328	0	141
94	6972	0	141
94	7344	0	141
94	11256	0	144
94	11304	0	144
94	11912	0	144
94	14864	0	144
94	14912	0	144
94	14936	0	144
94	14960	0	144
95	197	0	96
95	222	0	104
95	297	0	109
95	414	0	116
95	483	0	116
95	559	0	119
95	640	0	120
95	681	0	120
95	714	0	120
95	761	0	120
95	771	0	120
95	792	0	120
95	878	0	121
95	949	0	122
95	1044	0	123
95	1210	0	126
95	1282	0	133
95	1348	0	133
95	1488	0	133
95	1502	0	133
95	1938	0	136
95	2112	0	136
95	2224	0	136
95	2442	0	136
95	2506	0	136
95	2626	0	136
95	2750	0	136
95	2772	0	136
95	3796	0	141
95	3928	0	141
95	4104	0	141
95	4476	0	141
95	4492	0	141
95	5072	0	141
95	5992	0	141
95	6004	0	141
95	6168	0	141
95	6772	0	141
95	7080	0	141
95	7792	0	141
95	9984	0	144
95	10336	0	144
95	12472	0	144
95	12640	0	144
95	14368	0	144
95	14496	0	144
95	14728	0	144
95	15640	0	144
96	198	0	97
96	319	0	111
96	360	0	113
96	493	0	117
96	560	0	119
96	815	0	120
96	818	0	120
96	912	0	121
96	1236	0	131
96	1466	0	133
96	1512	0	133
96	1614	0	133
96	1686	0	133
96	1710	0	133
96	1750	0	133
96	1816	0	133
96	2118	0	136
96	2218	0	136
96	2298	0	136
96	2308	0	136
96	2600	0	136
96	2612	0	136
96	2618	0	136
96	2622	0	136
96	2762	0	136
96	2872	0	138
96	3268	0	138
96	3996	0	141
96	4288	0	141
96	5380	0	141
96	5472	0	141
96	6552	0	141
96	6696	0	141
96	6780	0	141
96	7800	0	141
96	8024	0	141
96	8320	0	141
96	8936	0	143
96	11632	0	144
96	11760	0	144
96	12408	0	144
96	13360	0	144
96	13528	0	144
96	13848	0	144
96	14504	0	144
96	15240	0	144
96	15304	0	144
97	201	0	98
97	278	0	109
97	318	0	111
97	387	0	116
97	518	0	119
97	569	0	119
97	703	0	120
97	722	0	120
97	890	0	121
97	939	0	122
97	974	0	123
97	981	0	123
97	1198	0	126
97	1510	0	133
97	1598	0	133
97	1602	0	133
97	1838	0	133
97	2060	0	136
97	2064	0	136
97	2200	0	136
97	2216	0	136
97	2226	0	136
97	2348	0	136
97	2558	0	136
97	2594	0	136
97	2630	0	136
97	2780	0	136
97	3224	0	138
97	3804	0	141
97	4632	0	141
97	5460	0	141
97	5668	0	141
97	6016	0	141
97	6716	0	141
97	7104	0	141
97	7992	0	141
97	8232	0	141
97	8248	0	141
97	10120	0	144
97	10152	0	144
97	10280	0	144
97	10968	0	144
97	11984	0	144
97	12248	0	144
97	12416	0	144
97	13112	0	144
97	13200	0	144
97	15464	0	144
97	16280	0	144
98	206	0	99
98	370	0	115
98	562	0	119
98	935	0	122
98	996	0	123
98	1248	0	132
98	1256	0	133
98	1978	0	136
98	2152	0	136
98	3132	0	138
98	4884	0	141
98	4948	0	141
98	5116	0	141
98	5844	0	141
98	7128	0	141
98	8064	0	141
99	207	0	100
99	377	0	115
99	590	0	119
99	998	0	123
99	1862	0	133
99	1866	0	134
99	4880	0	141
100	208	0	101
100	451	0	116
100	475	0	116
100	588	0	119
100	931	0	121
100	999	0	123
100	1244	0	131
100	1860	0	133
100	1868	0	134
100	1972	0	136
100	2160	0	136
100	2832	0	136
100	5136	0	141
100	5160	0	141
100	8680	0	141
101	215	0	102
101	253	0	107
101	295	0	109
101	309	0	111
101	425	0	116
101	524	0	119
101	540	0	119
101	543	0	119
101	742	0	120
101	756	0	120
101	778	0	120
101	886	0	121
101	1266	0	133
101	1272	0	133
101	1338	0	133
101	1374	0	133
101	1382	0	133
101	1386	0	133
101	1528	0	133
101	1548	0	133
101	1884	0	134
101	2042	0	136
101	2062	0	136
101	2464	0	136
101	2488	0	136
101	2822	0	136
101	2874	0	138
101	2938	0	138
101	3220	0	138
101	3736	0	141
101	3956	0	141
101	4112	0	141
101	4652	0	141
101	4968	0	141
101	4992	0	141
101	5000	0	141
101	5016	0	141
101	5204	0	141
101	5892	0	141
101	6032	0	141
101	6588	0	141
101	7192	0	141
101	7616	0	141
101	9480	0	144
101	10040	0	144
101	10192	0	144
101	10624	0	144
101	11544	0	144
101	11864	0	144
101	12176	0	144
101	13248	0	144
101	13656	0	144
101	13816	0	144
101	14112	0	144
101	14240	0	144
101	15032	0	144
101	15272	0	144
102	217	0	103
102	235	0	106
102	503	0	119
102	505	0	119
102	601	0	119
102	615	0	119
102	1176	0	126
102	1332	0	133
102	2652	0	136
102	4096	0	141
102	4568	0	141
102	5040	0	141
103	220	0	104
103	500	0	117
103	618	0	119
103	638	0	120
103	904	0	121
103	1068	0	123
103	1288	0	133
103	1454	0	133
103	2372	0	136
103	2400	0	136
103	2666	0	136
103	2674	0	136
103	2698	0	136
103	3416	0	138
103	3460	0	138
103	3468	0	138
103	6256	0	141
103	6296	0	141
103	6456	0	141
103	6760	0	141
103	6928	0	141
103	6952	0	141
103	6968	0	141
103	9712	0	144
103	11000	0	144
103	11072	0	144
103	11088	0	144
103	12520	0	144
103	12864	0	144
103	14904	0	144
104	228	0	105
104	294	0	109
104	303	0	110
104	350	0	113
104	533	0	119
104	536	0	119
104	596	0	119
104	712	0	120
104	747	0	120
104	795	0	120
104	1040	0	123
104	1170	0	126
104	1344	0	133
104	1420	0	133
104	1652	0	133
104	1680	0	133
104	1706	0	133
104	1952	0	136
104	1984	0	136
104	2026	0	136
104	2182	0	136
104	2206	0	136
104	2246	0	136
104	2258	0	136
104	2758	0	136
104	2966	0	138
104	3144	0	138
104	3256	0	138
104	3964	0	141
104	4196	0	141
104	4760	0	141
104	4840	0	141
104	4900	0	141
104	4936	0	141
104	6128	0	141
104	7664	0	141
104	7736	0	141
104	7960	0	141
104	8544	0	141
104	8568	0	141
104	8928	0	142
104	9080	0	144
104	10144	0	144
104	11848	0	144
104	12320	0	144
104	13984	0	144
104	14008	0	144
104	14032	0	144
104	14200	0	144
104	15384	0	144
104	15816	0	144
105	233	0	106
105	481	0	116
105	610	0	119
105	695	0	120
105	735	0	120
105	775	0	120
105	862	0	121
105	1152	0	126
105	1326	0	133
105	1914	0	136
105	2798	0	136
105	2972	0	138
105	3064	0	138
105	3632	0	141
105	4592	0	141
105	10544	0	144
105	12664	0	144
105	13872	0	144
105	14064	0	144
105	15688	0	144
105	16136	0	144
106	242	0	107
106	445	0	116
106	486	0	116
106	651	0	120
106	675	0	120
106	790	0	120
106	851	0	121
106	908	0	121
106	965	0	122
106	987	0	123
106	1124	0	126
106	1630	0	133
106	1708	0	133
106	1890	0	134
106	2002	0	136
106	2188	0	136
106	2194	0	136
106	2266	0	136
106	2302	0	136
106	2522	0	136
106	2560	0	136
106	2870	0	138
106	3028	0	138
106	3148	0	138
106	3260	0	138
106	3564	0	141
106	3840	0	141
106	3908	0	141
106	3936	0	141
106	4156	0	141
106	4368	0	141
106	4640	0	141
106	4724	0	141
106	5056	0	141
106	5516	0	141
106	5928	0	141
106	6668	0	141
106	6736	0	141
106	7448	0	141
106	7920	0	141
106	9032	0	144
106	9288	0	144
106	9824	0	144
106	9936	0	144
106	10304	0	144
106	11920	0	144
106	13080	0	144
106	15048	0	144
106	16248	0	144
107	271	0	108
107	320	0	111
107	334	0	111
107	413	0	116
107	534	0	119
107	605	0	119
107	669	0	120
107	751	0	120
107	1464	0	133
107	1584	0	133
107	1694	0	133
107	1962	0	136
107	2210	0	136
107	3012	0	138
107	3344	0	138
107	3576	0	141
107	3904	0	141
107	3984	0	141
107	4744	0	141
107	4772	0	141
107	4792	0	141
107	5220	0	141
107	5232	0	141
107	5548	0	141
107	5560	0	141
107	5672	0	141
107	5804	0	141
107	5868	0	141
107	6192	0	141
107	6576	0	141
107	6820	0	141
107	7720	0	141
107	7784	0	141
107	8992	0	144
107	9040	0	144
107	10016	0	144
107	10128	0	144
107	10272	0	144
107	12304	0	144
107	13304	0	144
107	13576	0	144
107	14216	0	144
107	16200	0	144
107	16312	0	144
108	274	0	109
108	276	0	109
108	353	0	113
108	447	0	116
108	662	0	120
108	763	0	120
108	807	0	120
108	843	0	121
108	919	0	121
108	1262	0	133
108	1268	0	133
108	1516	0	133
108	2036	0	136
108	2146	0	136
108	2256	0	136
108	2280	0	136
108	2336	0	136
108	2606	0	136
108	2818	0	136
108	2956	0	138
108	3216	0	138
108	3572	0	141
108	3588	0	141
108	3744	0	141
108	3812	0	141
108	4408	0	141
108	5188	0	141
108	5720	0	141
108	5836	0	141
108	6680	0	141
108	7232	0	141
108	9472	0	144
108	10792	0	144
108	13368	0	144
108	13696	0	144
108	13936	0	144
108	15864	0	144
109	299	0	110
109	504	0	119
109	1330	0	133
109	4572	0	141
109	10504	0	144
109	12696	0	144
109	13448	0	144
110	308	0	111
110	328	0	111
110	341	0	112
110	346	0	112
110	511	0	119
110	514	0	119
110	765	0	120
110	791	0	120
110	850	0	121
110	856	0	121
110	950	0	122
110	1356	0	133
110	1422	0	133
110	1480	0	133
110	1522	0	133
110	1560	0	133
110	2592	0	136
110	2862	0	138
110	3096	0	138
110	3196	0	138
110	3228	0	138
110	3272	0	138
110	3600	0	141
110	3768	0	141
110	3888	0	141
110	4184	0	141
110	4416	0	141
110	4496	0	141
110	4664	0	141
110	4988	0	141
110	5208	0	141
110	5632	0	141
110	5716	0	141
110	5780	0	141
110	6200	0	141
110	7096	0	141
110	8456	0	141
110	8728	0	141
110	8792	0	141
110	9232	0	144
110	10240	0	144
110	10928	0	144
110	12000	0	144
110	12200	0	144
110	13496	0	144
110	14704	0	144
110	15288	0	144
110	15368	0	144
110	15496	0	144
111	335	0	112
111	386	0	116
111	390	0	116
111	565	0	119
111	642	0	120
111	749	0	120
111	805	0	120
111	845	0	121
111	922	0	121
111	1368	0	133
111	1424	0	133
111	1508	0	133
111	1534	0	133
111	1622	0	133
111	1690	0	133
111	1822	0	133
111	1956	0	136
111	2126	0	136
111	2148	0	136
111	2240	0	136
111	2486	0	136
111	2624	0	136
111	2786	0	136
111	2982	0	138
111	3084	0	138
111	3236	0	138
111	3292	0	138
111	3596	0	141
111	4020	0	141
111	4148	0	141
111	4440	0	141
111	4808	0	141
111	5240	0	141
111	5384	0	141
111	5912	0	141
111	6096	0	141
111	6144	0	141
111	6728	0	141
111	7208	0	141
111	7456	0	141
111	8192	0	141
111	8376	0	141
111	9336	0	144
111	10632	0	144
111	10720	0	144
111	10768	0	144
111	11744	0	144
111	13208	0	144
111	13328	0	144
111	13392	0	144
111	13672	0	144
111	14720	0	144
111	16168	0	144
112	349	0	113
112	426	0	116
112	491	0	117
112	539	0	119
112	688	0	120
112	718	0	120
112	744	0	120
112	777	0	120
112	861	0	121
112	893	0	121
112	1172	0	126
112	1212	0	126
112	1228	0	131
112	1388	0	133
112	1574	0	133
112	1590	0	133
112	1720	0	133
112	4480	0	141
112	5052	0	141
112	5196	0	141
112	5592	0	141
112	6484	0	141
112	6852	0	141
112	7912	0	141
112	8184	0	141
112	9016	0	144
112	9088	0	144
112	9928	0	144
112	10488	0	144
112	12152	0	144
112	12168	0	144
112	13464	0	144
112	13592	0	144
112	13664	0	144
113	363	0	114
113	391	0	116
113	405	0	116
113	553	0	119
113	716	0	120
113	770	0	120
113	884	0	121
113	887	0	121
113	1190	0	126
113	1352	0	133
113	1416	0	133
113	1476	0	133
113	1558	0	133
113	1588	0	133
113	1592	0	133
113	1624	0	133
113	1640	0	133
113	1696	0	133
113	1828	0	133
113	1834	0	133
113	1882	0	134
113	1998	0	136
113	2202	0	136
113	2778	0	136
113	3020	0	138
113	3156	0	138
113	3184	0	138
113	4124	0	141
113	4188	0	141
113	4208	0	141
113	4660	0	141
113	4976	0	141
113	4984	0	141
113	5444	0	141
113	5496	0	141
113	5616	0	141
113	6584	0	141
113	6676	0	141
113	6708	0	141
113	6724	0	141
113	6828	0	141
113	6840	0	141
113	6848	0	141
113	7752	0	141
113	8240	0	141
113	9280	0	144
113	9752	0	144
113	9816	0	144
113	9896	0	144
113	9944	0	144
113	10072	0	144
113	10184	0	144
113	10288	0	144
113	10744	0	144
113	10888	0	144
113	12096	0	144
113	13128	0	144
113	13640	0	144
113	14128	0	144
113	14168	0	144
113	14360	0	144
113	14568	0	144
113	15000	0	144
113	15416	0	144
113	16088	0	144
114	368	0	115
114	376	0	115
114	658	0	120
114	1846	0	133
114	5164	0	141
114	5268	0	141
114	5856	0	141
114	8672	0	141
114	10824	0	144
115	384	0	116
115	442	0	116
115	460	0	116
115	647	0	120
115	855	0	121
115	924	0	121
115	927	0	121
115	957	0	122
115	985	0	123
115	1138	0	126
115	1358	0	133
115	1664	0	133
115	1764	0	133
115	1810	0	133
115	2312	0	136
115	2458	0	136
115	2816	0	136
115	3100	0	138
115	3712	0	141
115	3740	0	141
115	3756	0	141
115	4076	0	141
115	4732	0	141
115	5504	0	141
115	5612	0	141
115	5776	0	141
115	6568	0	141
115	6816	0	141
115	7648	0	141
115	7688	0	141
115	7712	0	141
115	7808	0	141
115	8520	0	141
115	8816	0	141
115	9456	0	144
115	9912	0	144
115	10264	0	144
115	11784	0	144
115	12400	0	144
116	487	0	117
116	863	0	121
116	1156	0	126
116	1572	0	133
116	1784	0	133
116	1802	0	133
116	1912	0	136
116	2516	0	136
116	3004	0	138
116	3044	0	138
116	3068	0	138
116	3280	0	138
116	3732	0	141
116	4004	0	141
116	4268	0	141
116	4912	0	141
116	5344	0	141
116	6000	0	141
116	6604	0	141
116	6624	0	141
116	8144	0	141
116	9024	0	144
116	9488	0	144
116	10944	0	144
116	11704	0	144
116	11816	0	144
116	12432	0	144
116	13048	0	144
116	14080	0	144
116	14488	0	144
117	501	0	118
117	1114	0	125
117	1118	0	126
117	1452	0	133
117	2738	0	136
117	4560	0	141
117	6360	0	141
117	6924	0	141
118	502	0	119
118	619	0	119
118	1112	0	125
118	1120	0	126
118	1450	0	133
118	2678	0	136
118	2736	0	136
118	2740	0	136
118	4564	0	141
118	9672	0	144
119	631	0	120
119	830	0	120
119	1072	0	123
119	1086	0	124
119	2072	0	136
119	2086	0	136
119	2094	0	136
119	2426	0	136
119	2430	0	136
119	2694	0	136
119	3376	0	138
119	3432	0	138
119	3552	0	141
119	4320	0	141
119	5976	0	141
119	6376	0	141
119	6964	0	141
119	6984	0	141
119	7384	0	141
119	9584	0	144
119	9728	0	144
119	10992	0	144
119	11032	0	144
119	11280	0	144
119	11384	0	144
119	12728	0	144
119	12888	0	144
119	12936	0	144
119	14816	0	144
119	14848	0	144
119	14920	0	144
120	832	0	121
120	1060	0	123
120	2438	0	136
120	3488	0	138
120	3504	0	140
120	3516	0	141
120	3524	0	141
120	3536	0	141
120	6504	0	141
120	6520	0	141
120	6884	0	141
120	6892	0	141
120	6908	0	141
120	6976	0	141
121	932	0	122
121	2162	0	136
121	3000	0	138
121	3328	0	138
121	4876	0	141
121	5112	0	141
121	5132	0	141
121	5848	0	141
121	8696	0	141
121	10416	0	144
121	13408	0	144
122	968	0	123
122	1066	0	123
122	1106	0	125
122	2352	0	136
122	2378	0	136
122	2436	0	136
122	2440	0	136
122	2732	0	136
122	3556	0	141
122	4692	0	141
122	4700	0	141
122	4708	0	141
122	5968	0	141
122	5980	0	141
122	6288	0	141
122	6536	0	141
122	6748	0	141
122	6912	0	141
122	9688	0	144
122	11064	0	144
122	11432	0	144
122	12488	0	144
122	14752	0	144
122	14880	0	144
123	1074	0	124
123	1298	0	133
123	2424	0	136
123	6220	0	141
123	6312	0	141
123	6380	0	141
123	6992	0	141
123	9184	0	144
123	12544	0	144
123	12968	0	144
124	1094	0	125
124	1098	0	125
124	1284	0	133
124	2070	0	136
124	2580	0	136
124	2670	0	136
124	2704	0	136
124	3384	0	138
124	3396	0	138
124	5948	0	141
124	5972	0	141
124	6208	0	141
124	6320	0	141
124	6336	0	141
124	6468	0	141
124	6876	0	141
124	12480	0	144
124	12608	0	144
124	14824	0	144
125	1116	0	126
125	4556	0	141
125	6920	0	141
126	1216	0	127
126	2806	0	136
126	2904	0	138
126	5276	0	141
126	10664	0	144
127	1218	0	128
127	2802	0	136
127	5296	0	141
127	5320	0	141
128	1220	0	129
128	5284	0	141
128	5328	0	141
129	1222	0	130
129	2894	0	138
130	1224	0	131
130	2804	0	136
130	2898	0	138
130	5288	0	141
130	5316	0	141
130	5324	0	141
130	13752	0	144
131	1864	0	134
132	2890	0	138
132	2900	0	138
132	5292	0	141
132	5308	0	141
132	5332	0	141
132	13736	0	144
132	13760	0	144
133	2892	0	138
133	5312	0	141
134	2896	0	138
134	5280	0	141
134	5304	0	141
134	13744	0	144
135	2902	0	138
135	5300	0	141
136	3492	0	139
136	3500	0	140
136	3508	0	140
136	6512	0	141
136	6888	0	141
136	6900	0	141
137	3496	0	140
137	3520	0	141
137	3532	0	141
137	6516	0	141
137	6904	0	141
138	3512	0	141
138	3528	0	141
138	6508	0	141
138	6896	0	141

