version 3
run General-147-20250904-14:13:15-15446
attr configname General
attr datetime 20250904-14:13:15
attr datetimef 20250904-141315
attr experiment General
attr inifile omnetpp.ini
attr iterationvars ""
attr iterationvarsd ""
attr iterationvarsf ""
attr measurement ""
attr network TaxiNetwork
attr processid 15446
attr repetition 147
attr replication #147
attr resultdir results
attr runnumber 147
attr seedset 147
config network TaxiNetwork
config seed-set 147
config num-rngs 1
config sim-time-limit 10s
config repeat 500
config *.numWalkers 1
config *.enableDuplication true
config *.rc 700
config **.node[0].xCor 2933
config **.node[0].yCor 2747
config **.node[1].xCor 2919
config **.node[1].yCor 2817
config **.node[2].xCor 2910
config **.node[2].yCor 2861
config **.node[3].xCor 2429
config **.node[3].yCor 2851
config **.node[4].xCor 2908
config **.node[4].yCor 2714
config **.node[5].xCor 2606
config **.node[5].yCor 2722
config **.node[6].xCor 2575
config **.node[6].yCor 2753
config **.node[7].xCor 2654
config **.node[7].yCor 2513
config **.node[8].xCor 2773
config **.node[8].yCor 2580
config **.node[9].xCor 3043
config **.node[9].yCor 2780
config **.node[10].xCor 3020
config **.node[10].yCor 2813
config **.node[11].xCor 2599
config **.node[11].yCor 2300
config **.node[12].xCor 2917
config **.node[12].yCor 2698
config **.node[13].xCor 2625
config **.node[13].yCor 2641
config **.node[14].xCor 2604
config **.node[14].yCor 2790
config **.node[15].xCor 2786
config **.node[15].yCor 3082
config **.node[16].xCor 2603
config **.node[16].yCor 2802
config **.node[17].xCor 2637
config **.node[17].yCor 2869
config **.node[18].xCor 2675
config **.node[18].yCor 2955
config **.node[19].xCor 2845
config **.node[19].yCor 2937
config **.node[20].xCor 2860
config **.node[20].yCor 2888
config **.node[21].xCor 2843
config **.node[21].yCor 4158
config **.node[22].xCor 2852
config **.node[22].yCor 4017
config **.node[23].xCor 2892
config **.node[23].yCor 4961
config **.node[24].xCor 2313
config **.node[24].yCor 3993
config **.node[25].xCor 2891
config **.node[25].yCor 4959
config **.node[26].xCor 2370
config **.node[26].yCor 4050
config **.node[27].xCor 2788
config **.node[27].yCor 3958
config **.node[28].xCor 2819
config **.node[28].yCor 4428
config **.node[29].xCor 2790
config **.node[29].yCor 3761
config **.node[30].xCor 2809
config **.node[30].yCor 2908
config **.node[31].xCor 2919
config **.node[31].yCor 3575
config **.node[32].xCor 2946
config **.node[32].yCor 3466
config **.node[33].xCor 2911
config **.node[33].yCor 3453
config **.node[34].xCor 2370
config **.node[34].yCor 3656
config **.node[35].xCor 2438
config **.node[35].yCor 3738
config **.node[36].xCor 2737
config **.node[36].yCor 3570
config **.node[37].xCor 2921
config **.node[37].yCor 3698
config **.node[38].xCor 2907
config **.node[38].yCor 5197
config **.node[39].xCor 2860
config **.node[39].yCor 3852
config **.node[40].xCor 2927
config **.node[40].yCor 3684
config **.node[41].xCor 3023
config **.node[41].yCor 5313
config **.node[42].xCor 3220
config **.node[42].yCor 5811
config **.node[43].xCor 3432
config **.node[43].yCor 5715
config **.node[44].xCor 2754
config **.node[44].yCor 2463
config **.node[45].xCor 2646
config **.node[45].yCor 2673
config **.node[46].xCor 3051
config **.node[46].yCor 2792
config **.node[47].xCor 1666
config **.node[47].yCor 3697
config **.node[48].xCor 1662
config **.node[48].yCor 3694
config **.node[49].xCor 1664
config **.node[49].yCor 3667
config **.node[50].xCor 1660
config **.node[50].yCor 3664
config **.node[51].xCor 1710
config **.node[51].yCor 3573
config **.node[52].xCor 2082
config **.node[52].yCor 2650
config **.node[53].xCor 2086
config **.node[53].yCor 2657
config **.node[54].xCor 2257
config **.node[54].yCor 3232
config **.node[55].xCor 2258
config **.node[55].yCor 3225
config **.node[56].xCor 1926
config **.node[56].yCor 2570
config **.node[57].xCor 1926
config **.node[57].yCor 2576
config **.node[58].xCor 2104
config **.node[58].yCor 1758
config **.node[59].xCor 1957
config **.node[59].yCor 1826
config **.node[60].xCor 3473
config **.node[60].yCor 1523
config **.node[61].xCor 3335
config **.node[61].yCor 1726
config **.node[62].xCor 3478
config **.node[62].yCor 1517
config **.node[63].xCor 3386
config **.node[63].yCor 2119
config **.node[64].xCor 3474
config **.node[64].yCor 1762
config **.node[65].xCor 3797
config **.node[65].yCor 2099
config **.node[66].xCor 3642
config **.node[66].yCor 2136
config **.node[67].xCor 3481
config **.node[67].yCor 2334
config **.node[68].xCor 3088
config **.node[68].yCor 1505
config **.node[69].xCor 3037
config **.node[69].yCor 1693
config **.node[70].xCor 3026
config **.node[70].yCor 1700
config **.node[71].xCor 3019
config **.node[71].yCor 669
config **.node[72].xCor 3513
config **.node[72].yCor 1358
config **.node[73].xCor 3545
config **.node[73].yCor 1230
config **.node[74].xCor 4228
config **.node[74].yCor 4220
config **.node[75].xCor 3379
config **.node[75].yCor 1207
config **.node[76].xCor 3596
config **.node[76].yCor 963
config **.node[77].xCor 3637
config **.node[77].yCor 1188
config **.node[78].xCor 3759
config **.node[78].yCor 1030
config **.node[79].xCor 2918
config **.node[79].yCor 1455
config **.node[80].xCor 2711
config **.node[80].yCor 1297
config **.node[81].xCor 439
config **.node[81].yCor 1623
config **.node[82].xCor 2857
config **.node[82].yCor 3581
config **.node[83].xCor 2858
config **.node[83].yCor 3584
config **.node[84].xCor 2999
config **.node[84].yCor 2636
config **.node[85].xCor 2905
config **.node[85].yCor 2778
config **.node[86].xCor 2653
config **.node[86].yCor 2845
config **.node[87].xCor 2864
config **.node[87].yCor 2836
config **.node[88].xCor 2426
config **.node[88].yCor 2892
config **.node[89].xCor 2964
config **.node[89].yCor 2804
config **.node[90].xCor 2586
config **.node[90].yCor 3135
config **.node[91].xCor 2864
config **.node[91].yCor 2980
config **.node[92].xCor 2527
config **.node[92].yCor 3219
config **.node[93].xCor 2863
config **.node[93].yCor 3142
config **.node[94].xCor 2485
config **.node[94].yCor 3269
config **.node[95].xCor 2653
config **.node[95].yCor 1065
config **.node[96].xCor 4062
config **.node[96].yCor 400
config **.node[97].xCor 5762
config **.node[97].yCor 3023
config **.node[98].xCor 1414
config **.node[98].yCor 3461
config **.node[99].xCor 2911
config **.node[99].yCor 1737
config **.node[100].xCor 2595
config **.node[100].yCor 2299
config **.node[101].xCor 2702
config **.node[101].yCor 3419
config **.node[102].xCor 2813
config **.node[102].yCor 3307
config **.node[103].xCor 2638
config **.node[103].yCor 2258
config **.node[104].xCor 2590
config **.node[104].yCor 3125
config **.node[105].xCor 1856
config **.node[105].yCor 2990
config **.node[106].xCor 1894
config **.node[106].yCor 2239
config **.node[107].xCor 383
config **.node[107].yCor 1251
config **.node[108].xCor 3447
config **.node[108].yCor 5489
config **.node[109].xCor 3450
config **.node[109].yCor 5697
config **.node[110].xCor 2719
config **.node[110].yCor 1920
config **.node[111].xCor 2085
config **.node[111].yCor 2389
config **.node[112].xCor 1910
config **.node[112].yCor 2548
config **.node[113].xCor 2069
config **.node[113].yCor 2050
config **.node[114].xCor 2184
config **.node[114].yCor 2209
config **.node[115].xCor 2278
config **.node[115].yCor 2390
config **.node[116].xCor 2249
config **.node[116].yCor 2299
config **.node[117].xCor 2356
config **.node[117].yCor 2303
config **.node[118].xCor 2192
config **.node[118].yCor 2475
config **.node[119].xCor 1720
config **.node[119].yCor 2911
config **.node[120].xCor 2400
config **.node[120].yCor 2887
config **.node[121].xCor 3344
config **.node[121].yCor 1890
config **.node[122].xCor 3136
config **.node[122].yCor 2418
config **.node[123].xCor 3243
config **.node[123].yCor 2525
config **.node[124].xCor 2396
config **.node[124].yCor 1267
config **.node[125].xCor 467
config **.node[125].yCor 1875
config **.node[126].xCor 3506
config **.node[126].yCor 1221
config **.node[127].xCor 1034
config **.node[127].yCor 1474
config **.node[128].xCor 2908
config **.node[128].yCor 1784
config **.node[129].xCor 2876
config **.node[129].yCor 1761
config **.node[130].xCor 2849
config **.node[130].yCor 1795
config **.node[131].xCor 3029
config **.node[131].yCor 1859
config **.node[132].xCor 2924
config **.node[132].yCor 1848
config **.node[133].xCor 3493
config **.node[133].yCor 1559
config **.node[134].xCor 2760
config **.node[134].yCor 1761
config **.node[135].xCor 1644
config **.node[135].yCor 3755
config **.node[136].xCor 1463
config **.node[136].yCor 3432
config **.node[137].xCor 2595
config **.node[137].yCor 2849
config **.node[138].xCor 2581
config **.node[138].yCor 2867
config **.node[139].xCor 2524
config **.node[139].yCor 2911
config **.node[140].xCor 2570
config **.node[140].yCor 2924
config **.node[141].xCor 2676
config **.node[141].yCor 2890
config **.node[142].xCor 2666
config **.node[142].yCor 2876
config **.node[143].xCor 3735
config **.node[143].yCor 1726
config **.node[144].xCor 1637
config **.node[144].yCor 3438

vector 0 TaxiNetwork.node[45] visitedPerTimestep ETV
vector 1 TaxiNetwork.node[102] visitedPerTimestep ETV
vector 2 TaxiNetwork.node[33] visitedPerTimestep ETV
vector 3 TaxiNetwork.node[83] visitedPerTimestep ETV
vector 4 TaxiNetwork.node[12] visitedPerTimestep ETV
vector 5 TaxiNetwork.node[88] visitedPerTimestep ETV
vector 6 TaxiNetwork.node[11] visitedPerTimestep ETV
vector 7 TaxiNetwork.node[84] visitedPerTimestep ETV
vector 8 TaxiNetwork.node[87] visitedPerTimestep ETV
vector 9 TaxiNetwork.node[17] visitedPerTimestep ETV
vector 10 TaxiNetwork.node[120] visitedPerTimestep ETV
vector 11 TaxiNetwork.node[10] visitedPerTimestep ETV
vector 12 TaxiNetwork.node[18] visitedPerTimestep ETV
vector 13 TaxiNetwork.node[14] visitedPerTimestep ETV
vector 14 TaxiNetwork.node[4] visitedPerTimestep ETV
vector 15 TaxiNetwork.node[67] visitedPerTimestep ETV
vector 16 TaxiNetwork.node[65] visitedPerTimestep ETV
vector 17 TaxiNetwork.node[60] visitedPerTimestep ETV
vector 18 TaxiNetwork.node[75] visitedPerTimestep ETV
vector 19 TaxiNetwork.node[72] visitedPerTimestep ETV
vector 20 TaxiNetwork.node[121] visitedPerTimestep ETV
vector 21 TaxiNetwork.node[79] visitedPerTimestep ETV
vector 22 TaxiNetwork.node[77] visitedPerTimestep ETV
vector 23 TaxiNetwork.node[73] visitedPerTimestep ETV
vector 24 TaxiNetwork.node[78] visitedPerTimestep ETV
vector 25 TaxiNetwork.node[126] visitedPerTimestep ETV
vector 26 TaxiNetwork.node[99] visitedPerTimestep ETV
vector 27 TaxiNetwork.node[63] visitedPerTimestep ETV
vector 28 TaxiNetwork.node[61] visitedPerTimestep ETV
vector 29 TaxiNetwork.node[64] visitedPerTimestep ETV
vector 30 TaxiNetwork.node[130] visitedPerTimestep ETV
vector 31 TaxiNetwork.node[134] visitedPerTimestep ETV
vector 32 TaxiNetwork.node[62] visitedPerTimestep ETV
vector 33 TaxiNetwork.node[123] visitedPerTimestep ETV
vector 34 TaxiNetwork.node[141] visitedPerTimestep ETV
vector 35 TaxiNetwork.node[85] visitedPerTimestep ETV
vector 36 TaxiNetwork.node[30] visitedPerTimestep ETV
vector 37 TaxiNetwork.node[55] visitedPerTimestep ETV
vector 38 TaxiNetwork.node[5] visitedPerTimestep ETV
vector 39 TaxiNetwork.node[139] visitedPerTimestep ETV
vector 40 TaxiNetwork.node[44] visitedPerTimestep ETV
vector 41 TaxiNetwork.node[100] visitedPerTimestep ETV
vector 42 TaxiNetwork.node[19] visitedPerTimestep ETV
vector 43 TaxiNetwork.node[86] visitedPerTimestep ETV
vector 44 TaxiNetwork.node[138] visitedPerTimestep ETV
vector 45 TaxiNetwork.node[90] visitedPerTimestep ETV
vector 46 TaxiNetwork.node[92] visitedPerTimestep ETV
vector 47 TaxiNetwork.node[74] visitedPerTimestep ETV
vector 48 TaxiNetwork.node[97] visitedPerTimestep ETV
vector 49 TaxiNetwork.node[101] visitedPerTimestep ETV
vector 50 TaxiNetwork.node[22] visitedPerTimestep ETV
vector 51 TaxiNetwork.node[32] visitedPerTimestep ETV
vector 52 TaxiNetwork.node[29] visitedPerTimestep ETV
vector 53 TaxiNetwork.node[39] visitedPerTimestep ETV
vector 54 TaxiNetwork.node[26] visitedPerTimestep ETV
vector 55 TaxiNetwork.node[35] visitedPerTimestep ETV
vector 56 TaxiNetwork.node[104] visitedPerTimestep ETV
vector 57 TaxiNetwork.node[142] visitedPerTimestep ETV
vector 58 TaxiNetwork.node[89] visitedPerTimestep ETV
vector 59 TaxiNetwork.node[15] visitedPerTimestep ETV
vector 60 TaxiNetwork.node[111] visitedPerTimestep ETV
vector 61 TaxiNetwork.node[6] visitedPerTimestep ETV
vector 62 TaxiNetwork.node[103] visitedPerTimestep ETV
vector 63 TaxiNetwork.node[118] visitedPerTimestep ETV
vector 64 TaxiNetwork.node[7] visitedPerTimestep ETV
vector 65 TaxiNetwork.node[91] visitedPerTimestep ETV
vector 66 TaxiNetwork.node[1] visitedPerTimestep ETV
vector 67 TaxiNetwork.node[8] visitedPerTimestep ETV
vector 68 TaxiNetwork.node[20] visitedPerTimestep ETV
vector 69 TaxiNetwork.node[137] visitedPerTimestep ETV
vector 70 TaxiNetwork.node[117] visitedPerTimestep ETV
vector 71 TaxiNetwork.node[13] visitedPerTimestep ETV
vector 72 TaxiNetwork.node[0] visitedPerTimestep ETV
vector 73 TaxiNetwork.node[93] visitedPerTimestep ETV
vector 74 TaxiNetwork.node[54] visitedPerTimestep ETV
vector 75 TaxiNetwork.node[34] visitedPerTimestep ETV
vector 76 TaxiNetwork.node[31] visitedPerTimestep ETV
vector 77 TaxiNetwork.node[40] visitedPerTimestep ETV
vector 78 TaxiNetwork.node[27] visitedPerTimestep ETV
vector 79 TaxiNetwork.node[116] visitedPerTimestep ETV
vector 80 TaxiNetwork.node[57] visitedPerTimestep ETV
vector 81 TaxiNetwork.node[129] visitedPerTimestep ETV
vector 82 TaxiNetwork.node[128] visitedPerTimestep ETV
vector 83 TaxiNetwork.node[133] visitedPerTimestep ETV
vector 84 TaxiNetwork.node[115] visitedPerTimestep ETV
vector 85 TaxiNetwork.node[24] visitedPerTimestep ETV
vector 86 TaxiNetwork.node[16] visitedPerTimestep ETV
vector 87 TaxiNetwork.node[56] visitedPerTimestep ETV
vector 88 TaxiNetwork.node[113] visitedPerTimestep ETV
vector 89 TaxiNetwork.node[3] visitedPerTimestep ETV
vector 90 TaxiNetwork.node[53] visitedPerTimestep ETV
vector 91 TaxiNetwork.node[9] visitedPerTimestep ETV
vector 92 TaxiNetwork.node[52] visitedPerTimestep ETV
vector 93 TaxiNetwork.node[140] visitedPerTimestep ETV
vector 94 TaxiNetwork.node[69] visitedPerTimestep ETV
vector 95 TaxiNetwork.node[46] visitedPerTimestep ETV
vector 96 TaxiNetwork.node[37] visitedPerTimestep ETV
vector 97 TaxiNetwork.node[21] visitedPerTimestep ETV
vector 98 TaxiNetwork.node[122] visitedPerTimestep ETV
vector 99 TaxiNetwork.node[2] visitedPerTimestep ETV
vector 100 TaxiNetwork.node[36] visitedPerTimestep ETV
vector 101 TaxiNetwork.node[82] visitedPerTimestep ETV
vector 102 TaxiNetwork.node[112] visitedPerTimestep ETV
vector 103 TaxiNetwork.node[94] visitedPerTimestep ETV
vector 104 TaxiNetwork.node[66] visitedPerTimestep ETV
vector 105 TaxiNetwork.node[110] visitedPerTimestep ETV
vector 106 TaxiNetwork.node[28] visitedPerTimestep ETV
vector 107 TaxiNetwork.node[68] visitedPerTimestep ETV
vector 108 TaxiNetwork.node[70] visitedPerTimestep ETV
vector 109 TaxiNetwork.node[76] visitedPerTimestep ETV
vector 110 TaxiNetwork.node[132] visitedPerTimestep ETV
vector 111 TaxiNetwork.node[131] visitedPerTimestep ETV
vector 112 TaxiNetwork.node[80] visitedPerTimestep ETV
vector 113 TaxiNetwork.node[106] visitedPerTimestep ETV
vector 114 TaxiNetwork.node[119] visitedPerTimestep ETV
vector 115 TaxiNetwork.node[105] visitedPerTimestep ETV
vector 116 TaxiNetwork.node[114] visitedPerTimestep ETV
vector 117 TaxiNetwork.node[58] visitedPerTimestep ETV
vector 118 TaxiNetwork.node[98] visitedPerTimestep ETV
vector 119 TaxiNetwork.node[49] visitedPerTimestep ETV
vector 120 TaxiNetwork.node[135] visitedPerTimestep ETV
vector 121 TaxiNetwork.node[51] visitedPerTimestep ETV
vector 122 TaxiNetwork.node[136] visitedPerTimestep ETV
vector 123 TaxiNetwork.node[144] visitedPerTimestep ETV
vector 124 TaxiNetwork.node[59] visitedPerTimestep ETV
vector 125 TaxiNetwork.node[143] visitedPerTimestep ETV
vector 126 TaxiNetwork.node[96] visitedPerTimestep ETV
vector 127 TaxiNetwork.node[124] visitedPerTimestep ETV
vector 128 TaxiNetwork.node[25] visitedPerTimestep ETV
vector 129 TaxiNetwork.node[23] visitedPerTimestep ETV
vector 130 TaxiNetwork.node[71] visitedPerTimestep ETV
vector 131 TaxiNetwork.node[127] visitedPerTimestep ETV
0	1	0	1
0	256	0	95
0	269	0	96
0	294	0	99
0	344	0	103
0	413	0	106
0	475	0	107
0	708	0	114
0	777	0	117
0	872	0	118
0	931	0	125
0	940	0	125
0	980	0	125
0	1356	0	134
0	1500	0	135
0	1520	0	135
0	1612	0	135
0	1700	0	135
0	2096	0	135
0	2128	0	135
0	2196	0	135
0	2224	0	135
0	2418	0	135
0	2638	0	135
0	2838	0	135
0	2850	0	135
0	2916	0	137
0	2924	0	137
0	2976	0	137
0	3164	0	137
0	3900	0	142
0	4348	0	142
0	4368	0	142
0	4456	0	142
0	5064	0	144
1	2	0	2
1	5	0	4
1	83	0	57
1	87	0	58
1	114	0	66
1	142	0	77
1	187	0	85
1	271	0	96
1	275	0	96
1	313	0	100
1	321	0	101
1	388	0	106
1	458	0	107
1	499	0	107
1	585	0	109
1	865	0	118
1	882	0	118
1	984	0	125
1	1032	0	125
1	1052	0	128
1	1246	0	133
1	1390	0	134
1	1926	0	135
1	2554	0	135
1	2696	0	135
1	2864	0	135
1	3012	0	137
1	3660	0	141
1	4580	0	142
1	4864	0	144
2	3	0	3
2	86	0	58
2	131	0	75
2	154	0	79
2	325	0	101
2	357	0	104
2	581	0	109
2	686	0	114
2	697	0	114
2	780	0	117
2	848	0	118
2	850	0	118
2	867	0	118
2	884	0	118
2	964	0	125
2	1176	0	133
2	1402	0	134
2	1688	0	135
2	1742	0	135
2	1930	0	135
2	2060	0	135
2	2526	0	135
2	2714	0	135
2	2868	0	135
2	2874	0	135
2	3060	0	137
2	3600	0	141
2	4152	0	142
2	4936	0	144
3	4	0	4
3	66	0	45
3	71	0	47
3	194	0	86
3	222	0	91
3	350	0	104
3	356	0	104
3	392	0	106
3	491	0	107
3	612	0	109
3	614	0	109
3	852	0	118
3	866	0	118
3	1928	0	135
3	2036	0	135
3	2066	0	135
3	2074	0	135
3	2508	0	135
3	2610	0	135
3	2648	0	135
3	2700	0	135
3	2720	0	135
3	2822	0	135
3	2866	0	135
3	2882	0	135
3	3016	0	137
3	3220	0	137
3	4244	0	142
3	5128	0	144
4	6	0	5
4	287	0	98
4	302	0	99
4	337	0	102
4	609	0	109
4	783	0	117
4	819	0	118
4	929	0	125
4	950	0	125
4	1236	0	133
4	1358	0	134
4	1442	0	135
4	1650	0	135
4	1714	0	135
4	1826	0	135
4	2170	0	135
4	2174	0	135
4	2236	0	135
4	2358	0	135
4	2412	0	135
4	2852	0	135
4	2986	0	137
5	7	0	6
5	108	0	66
5	160	0	81
5	196	0	86
5	258	0	95
5	361	0	104
5	384	0	106
5	471	0	107
5	482	0	107
5	597	0	109
5	633	0	109
5	821	0	118
5	845	0	118
5	859	0	118
5	880	0	118
5	959	0	125
5	993	0	125
5	1168	0	133
5	1314	0	134
5	1354	0	134
5	1584	0	135
5	1594	0	135
5	1906	0	135
5	1922	0	135
5	1982	0	135
5	2016	0	135
5	2494	0	135
5	2590	0	135
5	2658	0	135
5	2988	0	137
5	3300	0	137
5	3492	0	137
5	3512	0	137
5	3944	0	142
5	3996	0	142
5	4096	0	142
5	4412	0	142
5	4644	0	144
5	4688	0	144
5	4760	0	144
5	4908	0	144
6	8	0	7
6	175	0	83
6	212	0	90
6	306	0	99
6	408	0	106
6	506	0	107
6	546	0	107
6	566	0	109
6	637	0	109
6	679	0	113
6	730	0	116
6	733	0	116
6	764	0	116
6	810	0	118
6	955	0	125
6	1204	0	133
6	1380	0	134
6	1582	0	135
6	1630	0	135
6	1634	0	135
6	1652	0	135
6	1946	0	135
6	1950	0	135
6	2226	0	135
6	2422	0	135
6	2586	0	135
6	2640	0	135
6	2972	0	137
6	3572	0	137
6	3680	0	141
6	3852	0	142
6	4080	0	142
6	4180	0	142
6	4352	0	142
6	4480	0	142
6	4612	0	144
6	5052	0	144
6	5160	0	144
7	9	0	8
7	102	0	65
7	123	0	72
7	249	0	95
7	268	0	96
7	400	0	106
7	420	0	106
7	572	0	109
7	586	0	109
7	593	0	109
7	638	0	109
7	930	0	125
7	933	0	125
7	949	0	125
7	1366	0	134
7	1518	0	135
7	1696	0	135
7	2200	0	135
7	2572	0	135
7	2948	0	137
7	3124	0	137
7	4212	0	142
7	4692	0	144
7	4728	0	144
8	10	0	9
8	14	0	12
8	295	0	99
8	362	0	104
8	738	0	116
8	1300	0	134
8	1662	0	135
8	1722	0	135
8	1834	0	135
8	1856	0	135
8	2014	0	135
8	2192	0	135
8	2212	0	135
8	2534	0	135
8	2732	0	135
8	2748	0	135
8	2902	0	137
8	3116	0	137
8	3376	0	137
8	3904	0	142
8	4092	0	142
8	4200	0	142
9	11	0	10
9	88	0	58
9	91	0	59
9	184	0	84
9	186	0	85
9	227	0	92
9	270	0	96
9	290	0	99
9	293	0	99
9	324	0	101
9	417	0	106
9	421	0	106
9	457	0	107
9	480	0	107
9	634	0	109
9	786	0	117
9	797	0	117
9	847	0	118
9	860	0	118
9	1004	0	125
9	1148	0	133
9	1178	0	133
9	1232	0	133
9	1316	0	134
9	1338	0	134
9	1372	0	134
9	1530	0	135
9	1728	0	135
9	1782	0	135
9	1840	0	135
9	1960	0	135
9	2156	0	135
9	2198	0	135
9	2642	0	135
9	2664	0	135
9	2672	0	135
9	2706	0	135
9	2780	0	135
9	2876	0	135
9	2926	0	137
9	3160	0	137
9	3640	0	141
9	4188	0	142
9	4488	0	142
9	5060	0	144
10	12	0	11
10	94	0	60
10	140	0	77
10	333	0	102
10	412	0	106
10	442	0	107
10	495	0	107
10	501	0	107
10	763	0	116
10	861	0	118
10	908	0	118
10	996	0	125
10	999	0	125
10	1158	0	133
10	1184	0	133
10	1280	0	134
10	1298	0	134
10	1306	0	134
10	1602	0	135
10	1726	0	135
10	1748	0	135
10	1882	0	135
10	2008	0	135
10	2234	0	135
10	2430	0	135
10	2460	0	135
10	2568	0	135
10	2800	0	135
10	2942	0	137
10	2978	0	137
10	3088	0	137
10	3316	0	137
10	3404	0	137
10	3444	0	137
10	4140	0	142
10	4320	0	142
11	13	0	12
11	68	0	46
11	250	0	95
11	347	0	104
11	567	0	109
11	623	0	109
11	692	0	114
11	784	0	117
11	822	0	118
11	827	0	118
11	1308	0	134
11	1382	0	134
11	1656	0	135
11	1818	0	135
11	2440	0	135
11	2624	0	135
11	2688	0	135
11	2810	0	135
11	2836	0	135
11	2842	0	135
11	2984	0	137
11	3084	0	137
11	3192	0	137
11	3516	0	137
11	3584	0	138
11	3632	0	141
11	4144	0	142
11	4540	0	142
11	4880	0	144
11	5100	0	144
12	15	0	13
12	64	0	45
12	69	0	46
12	259	0	95
12	308	0	99
12	365	0	104
12	492	0	107
12	521	0	107
12	592	0	109
12	599	0	109
12	831	0	118
12	877	0	118
12	1018	0	125
12	1260	0	134
12	1318	0	134
12	1396	0	134
12	1564	0	135
12	2228	0	135
12	2964	0	137
12	3020	0	137
12	3036	0	137
12	3072	0	137
12	3968	0	142
12	4132	0	142
12	4228	0	142
12	4476	0	142
12	4676	0	144
12	4940	0	144
12	4980	0	144
12	5176	0	144
13	16	0	14
13	92	0	59
13	121	0	71
13	257	0	95
13	265	0	95
13	300	0	99
13	305	0	99
13	359	0	104
13	487	0	107
13	498	0	107
13	520	0	107
13	622	0	109
13	824	0	118
13	863	0	118
13	873	0	118
13	1200	0	133
13	1270	0	134
13	1340	0	134
13	1498	0	135
13	1732	0	135
13	1816	0	135
13	1898	0	135
13	2238	0	135
13	2250	0	135
13	2470	0	135
13	2592	0	135
13	3860	0	142
13	4088	0	142
13	4128	0	142
13	4280	0	142
13	4424	0	142
13	4572	0	142
13	4756	0	144
13	4764	0	144
13	5044	0	144
14	17	0	15
14	103	0	65
14	148	0	79
14	307	0	99
14	386	0	106
14	418	0	106
14	444	0	107
14	446	0	107
14	493	0	107
14	503	0	107
14	528	0	107
14	539	0	107
14	680	0	113
14	785	0	117
14	892	0	118
14	941	0	125
14	1196	0	133
14	1304	0	134
14	1398	0	134
14	1600	0	135
14	1822	0	135
14	1838	0	135
14	1948	0	135
14	2000	0	135
14	2168	0	135
14	2532	0	135
14	2676	0	135
14	3040	0	137
14	3304	0	137
14	3408	0	137
14	3556	0	137
14	4060	0	142
14	4336	0	142
14	4860	0	144
14	5088	0	144
14	5184	0	144
15	18	0	16
15	372	0	104
15	374	0	104
15	2844	0	135
15	3764	0	141
15	4216	0	142
15	4628	0	144
16	19	0	17
16	664	0	112
16	1646	0	135
16	4624	0	144
17	20	0	18
17	25	0	22
17	238	0	95
17	550	0	107
17	555	0	107
17	651	0	110
17	668	0	112
17	735	0	116
17	804	0	118
17	1072	0	128
17	1098	0	128
17	1108	0	128
17	2274	0	135
17	2286	0	135
17	2344	0	135
17	3732	0	141
17	3796	0	141
18	21	0	19
18	26	0	22
18	38	0	29
18	553	0	107
18	3736	0	141
18	3744	0	141
18	3808	0	142
19	22	0	20
19	27	0	22
19	171	0	82
19	557	0	107
19	671	0	112
19	1100	0	128
19	1106	0	128
19	1220	0	133
19	2292	0	135
19	2370	0	135
19	3816	0	142
19	4840	0	144
20	23	0	21
20	40	0	30
20	48	0	33
20	168	0	82
20	181	0	84
20	375	0	104
20	380	0	105
20	665	0	112
20	807	0	118
20	1078	0	128
20	1090	0	128
20	1638	0	135
20	2276	0	135
20	2932	0	137
20	3780	0	141
20	4164	0	142
20	4828	0	144
21	24	0	22
21	32	0	26
21	42	0	31
21	179	0	84
21	803	0	118
21	1120	0	130
21	2316	0	135
21	2336	0	135
21	2368	0	135
22	28	0	23
22	46	0	32
22	552	0	107
22	1102	0	128
22	1114	0	129
22	1124	0	131
22	1132	0	133
22	1222	0	133
22	2296	0	135
22	2300	0	135
23	29	0	24
23	551	0	107
23	558	0	107
23	669	0	112
23	1104	0	128
23	2288	0	135
23	2334	0	135
23	4832	0	144
24	30	0	25
24	37	0	29
24	554	0	107
24	1126	0	132
24	1130	0	133
24	2324	0	135
24	2328	0	135
24	2332	0	135
25	31	0	26
25	36	0	29
25	170	0	82
25	653	0	110
25	1122	0	130
25	3752	0	141
25	4796	0	144
26	33	0	27
26	507	0	107
26	563	0	109
26	678	0	113
26	1082	0	128
26	1096	0	128
26	1762	0	135
27	34	0	28
27	377	0	105
27	655	0	110
27	660	0	112
27	666	0	112
27	677	0	113
27	736	0	116
27	1092	0	128
27	1138	0	133
27	2320	0	135
27	2342	0	135
27	3772	0	141
27	3832	0	142
28	35	0	29
28	45	0	32
28	173	0	82
28	378	0	105
28	556	0	107
28	1118	0	130
28	1134	0	133
28	2304	0	135
28	2338	0	135
28	3768	0	141
28	3820	0	142
28	4792	0	144
28	4836	0	144
29	39	0	30
29	169	0	82
29	172	0	82
29	177	0	83
29	239	0	95
29	1136	0	133
29	1768	0	135
29	2302	0	135
30	41	0	31
30	44	0	32
30	511	0	107
30	662	0	112
30	676	0	113
30	1094	0	128
30	1642	0	135
30	2314	0	135
30	3728	0	141
30	4788	0	144
31	43	0	32
31	180	0	84
31	647	0	109
31	802	0	118
31	1636	0	135
31	3784	0	141
32	47	0	33
32	236	0	94
32	510	0	107
32	652	0	110
32	1224	0	133
32	2308	0	135
32	3756	0	141
32	3824	0	142
33	49	0	34
33	124	0	72
33	152	0	79
33	301	0	99
33	504	0	107
33	517	0	107
33	737	0	116
33	870	0	118
33	938	0	125
33	957	0	125
33	1068	0	128
33	1272	0	134
33	1342	0	134
33	1370	0	134
33	1384	0	134
33	1422	0	135
33	1648	0	135
33	1694	0	135
33	1772	0	135
33	1916	0	135
33	2044	0	135
33	2240	0	135
33	2620	0	135
33	3552	0	137
33	4160	0	142
33	4620	0	144
34	50	0	35
34	98	0	62
34	163	0	81
34	299	0	99
34	304	0	99
34	328	0	102
34	409	0	106
34	782	0	117
34	830	0	118
34	937	0	125
34	939	0	125
34	958	0	125
34	994	0	125
34	1282	0	134
34	1414	0	135
34	1490	0	135
34	1610	0	135
34	1844	0	135
34	1854	0	135
34	2424	0	135
34	2432	0	135
34	2446	0	135
34	2576	0	135
34	2598	0	135
34	2626	0	135
34	2716	0	135
34	2858	0	135
34	3028	0	137
34	3128	0	137
34	3232	0	137
34	3388	0	137
34	3612	0	141
34	3928	0	142
34	4416	0	142
34	4436	0	142
34	4500	0	142
34	4536	0	142
34	4548	0	142
34	4668	0	144
34	4896	0	144
34	5156	0	144
35	51	0	36
35	118	0	69
35	199	0	87
35	213	0	90
35	452	0	107
35	460	0	107
35	478	0	107
35	516	0	107
35	540	0	107
35	820	0	118
35	825	0	118
35	1026	0	125
35	1030	0	125
35	2114	0	135
35	2150	0	135
35	2500	0	135
35	2588	0	135
35	2656	0	135
35	3436	0	137
35	3576	0	137
35	4284	0	142
35	4332	0	142
35	4576	0	142
35	4724	0	144
35	4932	0	144
35	5028	0	144
36	52	0	37
36	65	0	45
36	107	0	66
36	162	0	81
36	165	0	81
36	221	0	91
36	252	0	95
36	349	0	104
36	447	0	107
36	459	0	107
36	631	0	109
36	644	0	109
36	709	0	114
36	842	0	118
36	1392	0	134
36	1424	0	135
36	1522	0	135
36	1562	0	135
36	1690	0	135
36	2040	0	135
36	2402	0	135
36	2660	0	135
36	2758	0	135
36	2958	0	137
36	3076	0	137
36	3412	0	137
36	3652	0	141
36	4000	0	142
36	4204	0	142
36	4516	0	142
36	4972	0	144
36	5104	0	144
36	5192	0	144
37	53	0	38
37	84	0	57
37	97	0	62
37	106	0	66
37	141	0	77
37	364	0	104
37	627	0	109
37	707	0	114
37	711	0	114
37	769	0	116
37	796	0	117
37	813	0	118
37	885	0	118
37	1038	0	125
37	1186	0	133
37	1296	0	134
37	1320	0	134
37	1436	0	135
37	1542	0	135
37	1900	0	135
37	1920	0	135
37	1938	0	135
37	2070	0	135
37	2076	0	135
37	2436	0	135
37	2596	0	135
37	2766	0	135
37	2778	0	135
37	2980	0	137
37	3532	0	137
37	3616	0	141
37	3964	0	142
37	4108	0	142
37	4408	0	142
37	4944	0	144
37	5036	0	144
38	54	0	39
38	59	0	43
38	109	0	66
38	125	0	72
38	330	0	102
38	369	0	104
38	535	0	107
38	693	0	114
38	771	0	116
38	898	0	118
38	948	0	125
38	951	0	125
38	968	0	125
38	1034	0	125
38	1324	0	134
38	1330	0	134
38	1362	0	134
38	1412	0	135
38	1774	0	135
38	1842	0	135
38	1848	0	135
38	1888	0	135
38	1956	0	135
38	1966	0	135
38	1986	0	135
38	2138	0	135
38	2246	0	135
38	2686	0	135
38	2756	0	135
38	2764	0	135
38	2918	0	137
38	2944	0	137
38	3392	0	137
38	3872	0	142
38	4208	0	142
38	5080	0	144
38	5108	0	144
39	55	0	40
39	60	0	43
39	63	0	45
39	202	0	87
39	219	0	91
39	385	0	106
39	497	0	107
39	519	0	107
39	576	0	109
39	723	0	116
39	839	0	118
39	965	0	125
39	975	0	125
39	987	0	125
39	1028	0	125
39	1040	0	125
39	1162	0	133
39	1496	0	135
39	1606	0	135
39	1658	0	135
39	1702	0	135
39	1712	0	135
39	1734	0	135
39	1740	0	135
39	1904	0	135
39	1998	0	135
39	2006	0	135
39	2018	0	135
39	2088	0	135
39	2130	0	135
39	2134	0	135
39	2536	0	135
39	2540	0	135
39	2574	0	135
39	2730	0	135
39	2904	0	137
39	2950	0	137
39	3480	0	137
39	3520	0	137
39	4232	0	142
39	4468	0	142
39	4872	0	144
39	5076	0	144
39	5172	0	144
40	56	0	41
40	161	0	81
40	243	0	95
40	283	0	98
40	419	0	106
40	793	0	117
40	818	0	118
40	897	0	118
40	936	0	125
40	943	0	125
40	961	0	125
40	1238	0	133
40	1250	0	133
40	1556	0	135
40	1872	0	135
40	2390	0	135
40	2628	0	135
40	3172	0	137
40	3432	0	137
40	3504	0	137
40	5096	0	144
40	5168	0	144
41	57	0	42
41	166	0	81
41	183	0	84
41	241	0	95
41	253	0	95
41	291	0	99
41	445	0	107
41	530	0	107
41	564	0	109
41	646	0	109
41	726	0	116
41	728	0	116
41	731	0	116
41	838	0	118
41	889	0	118
41	982	0	125
41	1256	0	134
41	1278	0	134
41	1344	0	134
41	1368	0	134
41	1486	0	135
41	1504	0	135
41	1560	0	135
41	1760	0	135
41	1830	0	135
41	2488	0	135
41	2954	0	137
41	3004	0	137
41	3104	0	137
41	3580	0	137
41	3992	0	142
41	4736	0	144
41	4748	0	144
41	4960	0	144
42	58	0	43
42	155	0	79
42	334	0	102
42	346	0	104
42	370	0	104
42	449	0	107
42	461	0	107
42	545	0	107
42	710	0	114
42	739	0	116
42	741	0	116
42	901	0	118
42	1516	0	135
42	1534	0	135
42	1668	0	135
42	2244	0	135
42	2458	0	135
42	2578	0	135
42	2718	0	135
42	2728	0	135
42	2788	0	135
42	2798	0	135
42	3568	0	137
42	3704	0	141
42	4124	0	142
42	4224	0	142
42	4568	0	142
42	4700	0	144
42	4924	0	144
43	61	0	44
43	113	0	66
43	200	0	87
43	244	0	95
43	415	0	106
43	466	0	107
43	542	0	107
43	610	0	109
43	732	0	116
43	788	0	117
43	829	0	118
43	1002	0	125
43	1276	0	134
43	1352	0	134
43	1538	0	135
43	1586	0	135
43	1832	0	135
43	1846	0	135
43	1972	0	135
43	2136	0	135
43	2194	0	135
43	2204	0	135
43	2416	0	135
43	2632	0	135
43	2734	0	135
43	2776	0	135
43	2960	0	137
43	2998	0	137
43	3536	0	137
43	3848	0	142
44	62	0	45
44	90	0	59
44	156	0	79
44	209	0	89
44	218	0	91
44	410	0	106
44	946	0	125
44	974	0	125
44	1160	0	133
44	1450	0	135
44	1654	0	135
44	1864	0	135
44	1924	0	135
44	1962	0	135
44	2012	0	135
44	2112	0	135
44	2428	0	135
44	2444	0	135
44	2580	0	135
44	2744	0	135
44	2992	0	137
44	3340	0	137
44	3692	0	141
44	3844	0	142
44	3972	0	142
44	4036	0	142
44	4084	0	142
44	4104	0	142
44	4308	0	142
44	4600	0	143
44	4672	0	144
44	4680	0	144
45	67	0	46
45	273	0	96
45	303	0	99
45	397	0	106
45	467	0	107
45	591	0	109
45	594	0	109
45	743	0	116
45	849	0	118
45	851	0	118
45	853	0	118
45	1472	0	135
45	1536	0	135
45	1716	0	135
45	1824	0	135
45	1940	0	135
45	2172	0	135
45	2426	0	135
45	2482	0	135
45	2504	0	135
45	2594	0	135
45	2616	0	135
45	2710	0	135
45	2796	0	135
45	2870	0	135
45	3196	0	137
45	3380	0	137
45	3416	0	137
45	3980	0	142
45	4248	0	142
45	4596	0	143
45	5072	0	144
46	70	0	47
46	138	0	77
46	147	0	79
46	164	0	81
46	246	0	95
46	311	0	99
46	335	0	102
46	544	0	107
46	582	0	109
46	626	0	109
46	696	0	114
46	699	0	114
46	706	0	114
46	762	0	116
46	883	0	118
46	1022	0	125
46	1048	0	127
46	1360	0	134
46	1400	0	134
46	1550	0	135
46	1620	0	135
46	1704	0	135
46	1812	0	135
46	1990	0	135
46	2434	0	135
46	2550	0	135
46	2802	0	135
46	2872	0	135
46	3312	0	137
46	3356	0	137
46	3372	0	137
46	4040	0	142
46	4316	0	142
46	4388	0	142
46	4868	0	144
46	5124	0	144
47	72	0	48
47	74	0	49
47	2452	0	135
47	2646	0	135
47	4396	0	142
48	73	0	49
49	75	0	50
49	137	0	77
49	389	0	106
49	423	0	106
49	468	0	107
49	615	0	109
49	753	0	116
49	834	0	118
49	881	0	118
49	1000	0	125
49	1546	0	135
49	1720	0	135
49	1724	0	135
49	1746	0	135
49	1814	0	135
49	1862	0	135
49	1936	0	135
49	1976	0	135
49	2024	0	135
49	2438	0	135
49	2448	0	135
49	2454	0	135
49	2538	0	135
49	2702	0	135
49	2724	0	135
49	2774	0	135
49	2786	0	135
49	2812	0	135
49	2826	0	135
49	2966	0	137
49	3000	0	137
49	3064	0	137
49	3708	0	141
49	4236	0	142
49	4404	0	142
49	4584	0	142
49	4892	0	144
50	76	0	51
50	145	0	79
50	189	0	85
50	353	0	104
50	427	0	106
50	430	0	106
50	746	0	116
50	754	0	116
50	2898	0	137
50	4708	0	144
51	77	0	52
51	310	0	99
51	323	0	101
51	543	0	107
51	577	0	109
51	700	0	114
51	759	0	116
51	828	0	118
51	1024	0	125
51	1430	0	135
51	1528	0	135
51	1532	0	135
51	1660	0	135
51	2020	0	135
51	2030	0	135
51	2048	0	135
51	2086	0	135
51	2600	0	135
51	2738	0	135
51	2770	0	135
51	2804	0	135
51	2878	0	135
51	2900	0	137
51	3648	0	141
51	3716	0	141
51	3920	0	142
51	4008	0	142
51	4588	0	143
51	4720	0	144
52	78	0	53
52	136	0	77
52	320	0	101
52	489	0	107
52	703	0	114
52	745	0	116
52	2062	0	135
52	2182	0	135
52	2408	0	135
52	2518	0	135
52	2604	0	135
52	2824	0	135
52	2884	0	135
52	3200	0	137
52	4020	0	142
52	5144	0	144
53	79	0	54
53	133	0	76
53	314	0	100
53	426	0	106
53	704	0	114
53	750	0	116
53	758	0	116
53	2084	0	135
53	2180	0	135
53	2772	0	135
53	2814	0	135
53	2820	0	135
53	2894	0	137
54	80	0	55
54	352	0	104
54	437	0	107
54	747	0	116
54	751	0	116
54	2184	0	135
54	2606	0	135
55	81	0	56
55	146	0	79
55	277	0	97
55	351	0	104
55	578	0	109
55	705	0	114
55	755	0	116
55	1432	0	135
55	1932	0	135
55	2064	0	135
55	2072	0	135
55	2406	0	135
55	4012	0	142
56	82	0	57
56	110	0	66
56	130	0	75
56	139	0	77
56	210	0	89
56	214	0	90
56	282	0	98
56	286	0	98
56	402	0	106
56	439	0	107
56	488	0	107
56	601	0	109
56	761	0	116
56	1174	0	133
56	1190	0	133
56	1418	0	135
56	1994	0	135
56	2010	0	135
56	2126	0	135
56	2176	0	135
56	2404	0	135
56	2410	0	135
56	2602	0	135
56	2650	0	135
56	2736	0	135
56	2982	0	137
56	2990	0	137
56	3228	0	137
56	3360	0	137
56	3624	0	141
56	3656	0	141
56	3696	0	141
56	3884	0	142
56	3916	0	142
56	4252	0	142
56	4376	0	142
56	4552	0	142
56	4716	0	144
56	4876	0	144
56	5032	0	144
56	5068	0	144
56	5196	0	144
57	85	0	58
57	245	0	95
57	260	0	95
57	338	0	102
57	383	0	106
57	463	0	107
57	620	0	109
57	641	0	109
57	684	0	114
57	760	0	116
57	768	0	116
57	826	0	118
57	854	0	118
57	1046	0	127
57	1268	0	134
57	1292	0	134
57	1628	0	135
57	1698	0	135
57	1892	0	135
57	1968	0	135
57	2654	0	135
57	2784	0	135
57	3332	0	137
57	3720	0	141
57	4044	0	142
57	4312	0	142
57	4472	0	142
57	4564	0	142
57	4696	0	144
57	4732	0	144
57	4904	0	144
58	89	0	59
58	151	0	79
58	288	0	98
58	371	0	104
58	407	0	106
58	494	0	107
58	541	0	107
58	618	0	109
58	645	0	109
58	856	0	118
58	963	0	125
58	1234	0	133
58	1512	0	135
58	1596	0	135
58	1664	0	135
58	2164	0	135
58	2202	0	135
58	2218	0	135
58	2392	0	135
58	2400	0	135
58	2420	0	135
58	2450	0	135
58	2806	0	135
58	2862	0	135
58	3100	0	137
58	3244	0	137
58	3428	0	137
58	3604	0	141
58	3684	0	141
58	4400	0	142
58	4888	0	144
59	93	0	60
59	105	0	66
59	112	0	66
59	128	0	74
59	195	0	86
59	223	0	91
59	399	0	106
59	414	0	106
59	424	0	106
59	477	0	107
59	527	0	107
59	687	0	114
59	689	0	114
59	770	0	116
59	932	0	125
59	985	0	125
59	1012	0	125
59	1020	0	125
59	1172	0	133
59	1618	0	135
59	1974	0	135
59	2028	0	135
59	2188	0	135
59	2546	0	135
59	2552	0	135
59	2630	0	135
59	3348	0	137
59	3888	0	142
59	4432	0	142
59	4652	0	144
59	5116	0	144
60	95	0	61
60	208	0	89
60	343	0	103
60	921	0	124
60	926	0	125
60	947	0	125
60	954	0	125
60	976	0	125
60	978	0	125
60	992	0	125
60	1478	0	135
60	1912	0	135
60	2102	0	135
60	2256	0	135
60	2352	0	135
60	2636	0	135
60	2914	0	137
60	3284	0	137
60	3396	0	137
60	3472	0	137
60	3544	0	137
60	4260	0	142
61	96	0	62
61	242	0	95
61	261	0	95
61	296	0	99
61	440	0	107
61	469	0	107
61	483	0	107
61	500	0	107
61	515	0	107
61	598	0	109
61	607	0	109
61	632	0	109
61	727	0	116
61	841	0	118
61	902	0	118
61	1444	0	135
61	1506	0	135
61	1524	0	135
61	1590	0	135
61	1604	0	135
61	1958	0	135
61	2108	0	135
61	2116	0	135
61	2214	0	135
61	2356	0	135
61	2548	0	135
61	2670	0	135
61	3184	0	137
61	3352	0	137
61	4328	0	142
61	4544	0	142
61	5200	0	144
62	99	0	63
62	220	0	91
62	234	0	94
62	573	0	109
62	789	0	117
62	846	0	118
62	871	0	118
62	953	0	125
62	1202	0	133
62	1208	0	133
62	1364	0	134
62	1588	0	135
62	1674	0	135
62	1784	0	135
62	2144	0	135
62	2158	0	135
62	2162	0	135
62	2396	0	135
62	2808	0	135
62	2928	0	137
62	2936	0	137
62	2970	0	137
62	3152	0	137
62	3948	0	142
62	4304	0	142
62	4360	0	142
62	5204	0	145
63	100	0	64
63	158	0	80
63	231	0	92
63	262	0	95
63	292	0	99
63	331	0	102
63	366	0	104
63	481	0	107
63	605	0	109
63	683	0	114
63	719	0	115
63	790	0	117
63	879	0	118
63	924	0	125
63	991	0	125
63	1154	0	133
63	1180	0	133
63	1284	0	134
63	1290	0	134
63	1492	0	135
63	1570	0	135
63	1676	0	135
63	1682	0	135
63	1750	0	135
63	1850	0	135
63	1896	0	135
63	2118	0	135
63	2582	0	135
63	2910	0	137
63	3280	0	137
63	3328	0	137
63	4136	0	142
63	4524	0	142
63	4684	0	144
63	4956	0	144
63	5016	0	144
64	101	0	65
64	111	0	66
64	230	0	92
64	264	0	95
64	455	0	107
64	513	0	107
64	531	0	107
64	537	0	107
64	629	0	109
64	844	0	118
64	878	0	118
64	891	0	118
64	907	0	118
64	960	0	125
64	971	0	125
64	979	0	125
64	988	0	125
64	1210	0	133
64	1240	0	133
64	1274	0	134
64	1488	0	135
64	1684	0	135
64	1820	0	135
64	1878	0	135
64	1884	0	135
64	2210	0	135
64	2480	0	135
64	2486	0	135
64	2834	0	135
64	2840	0	135
64	2860	0	135
64	2946	0	137
64	3248	0	137
64	3548	0	137
64	4256	0	142
64	4264	0	142
64	4296	0	142
64	4448	0	142
64	4604	0	143
64	4664	0	144
64	4900	0	144
64	5188	0	144
65	104	0	66
65	229	0	92
65	297	0	99
65	309	0	99
65	327	0	102
65	401	0	106
65	403	0	106
65	443	0	107
65	569	0	109
65	690	0	114
65	740	0	116
65	815	0	118
65	894	0	118
65	998	0	125
65	1044	0	126
65	1062	0	128
65	1252	0	133
65	1310	0	134
65	1328	0	134
65	1334	0	134
65	1416	0	135
65	1624	0	135
65	1730	0	135
65	1810	0	135
65	2110	0	135
65	2222	0	135
65	2414	0	135
65	2442	0	135
65	2476	0	135
65	2524	0	135
65	2618	0	135
65	2726	0	135
65	2762	0	135
65	3308	0	137
65	3560	0	137
65	3644	0	141
65	3960	0	142
65	4056	0	142
65	4976	0	144
66	115	0	67
66	422	0	106
66	453	0	107
66	529	0	107
66	595	0	109
66	636	0	109
66	766	0	116
66	816	0	118
66	942	0	125
66	1194	0	133
66	1510	0	135
66	1672	0	135
66	2002	0	135
66	2042	0	135
66	2704	0	135
66	3032	0	137
66	3488	0	137
66	4496	0	142
66	4616	0	144
66	4968	0	144
66	5084	0	144
66	5136	0	144
67	116	0	68
67	149	0	79
67	225	0	92
67	360	0	104
67	476	0	107
67	484	0	107
67	525	0	107
67	619	0	109
67	725	0	116
67	765	0	116
67	773	0	116
67	888	0	118
67	1230	0	133
67	1336	0	134
67	1408	0	134
67	1502	0	135
67	1568	0	135
67	1852	0	135
67	2394	0	135
67	2938	0	137
67	3092	0	137
67	3148	0	137
67	3484	0	137
67	4072	0	142
67	4196	0	142
67	4440	0	142
67	4636	0	144
67	5056	0	144
68	117	0	69
68	150	0	79
68	153	0	79
68	272	0	96
68	404	0	106
68	441	0	107
68	451	0	107
68	588	0	109
68	590	0	109
68	639	0	109
68	973	0	125
68	1060	0	128
68	1350	0	134
68	1386	0	134
68	1410	0	135
68	1438	0	135
68	1918	0	135
68	1992	0	135
68	2252	0	135
68	2456	0	135
68	2652	0	135
68	2680	0	135
68	2692	0	135
68	2782	0	135
68	2962	0	137
68	3188	0	137
68	3240	0	137
68	3368	0	137
68	3424	0	137
68	3908	0	142
68	3940	0	142
68	3956	0	142
68	4148	0	142
68	4344	0	142
68	4380	0	142
68	4656	0	144
68	5048	0	144
69	119	0	70
69	197	0	86
69	216	0	91
69	298	0	99
69	368	0	104
69	462	0	107
69	625	0	109
69	628	0	109
69	835	0	118
69	868	0	118
69	890	0	118
69	900	0	118
69	945	0	125
69	997	0	125
69	1006	0	125
69	1254	0	134
69	1346	0	134
69	1378	0	134
69	1580	0	135
69	1718	0	135
69	1828	0	135
69	1868	0	135
69	1874	0	135
69	2140	0	135
69	2398	0	135
69	2492	0	135
69	2678	0	135
69	2750	0	135
69	2854	0	135
69	3056	0	137
69	3592	0	139
69	3896	0	142
69	3976	0	142
69	4120	0	142
69	4460	0	142
69	4532	0	142
69	5180	0	144
70	120	0	71
70	217	0	91
70	474	0	107
70	502	0	107
70	681	0	113
70	928	0	125
70	989	0	125
70	1376	0	134
70	1776	0	135
70	2360	0	135
70	2380	0	135
70	2754	0	135
70	2974	0	137
70	3252	0	137
70	3468	0	137
70	3672	0	141
70	3840	0	142
70	4268	0	142
70	4484	0	142
70	4528	0	142
70	4988	0	144
70	5012	0	144
71	122	0	72
71	254	0	95
71	332	0	102
71	405	0	106
71	479	0	107
71	518	0	107
71	523	0	107
71	571	0	109
71	600	0	109
71	630	0	109
71	694	0	114
71	864	0	118
71	1054	0	128
71	1064	0	128
71	1146	0	133
71	1198	0	133
71	1242	0	133
71	1258	0	134
71	1264	0	134
71	1348	0	134
71	1406	0	134
71	1706	0	135
71	1736	0	135
71	1808	0	135
71	2220	0	135
71	2254	0	135
71	2570	0	135
71	2690	0	135
71	3988	0	142
71	4192	0	142
71	4340	0	142
71	4428	0	142
71	4520	0	142
71	4608	0	143
71	4744	0	144
71	4772	0	144
72	126	0	73
72	267	0	96
72	486	0	107
72	642	0	109
72	837	0	118
72	874	0	118
72	983	0	125
72	1056	0	128
72	1332	0	134
72	1440	0	135
72	1566	0	135
72	2090	0	135
72	2094	0	135
72	2142	0	135
72	2160	0	135
72	2490	0	135
72	2498	0	135
72	2684	0	135
72	3628	0	141
72	3880	0	142
72	4444	0	142
72	4556	0	142
72	4660	0	144
73	127	0	74
73	226	0	92
73	251	0	95
73	255	0	95
73	348	0	104
73	589	0	109
73	616	0	109
73	643	0	109
73	698	0	114
73	724	0	116
73	779	0	117
73	843	0	118
73	876	0	118
73	1302	0	134
73	1446	0	135
73	1554	0	135
73	1738	0	135
73	1886	0	135
73	1942	0	135
73	1964	0	135
73	2472	0	135
73	2478	0	135
73	2496	0	135
73	2644	0	135
73	2698	0	135
73	2794	0	135
73	3052	0	137
73	3620	0	141
73	4292	0	142
73	5120	0	144
73	5132	0	144
74	129	0	75
74	358	0	104
74	611	0	109
74	688	0	114
74	814	0	118
74	966	0	125
74	1008	0	125
74	1036	0	125
74	1050	0	128
74	1262	0	134
74	1266	0	134
74	1426	0	135
74	1448	0	135
74	1540	0	135
74	1608	0	135
74	2068	0	135
74	2106	0	135
74	3336	0	137
74	4048	0	142
74	5152	0	144
75	132	0	76
75	134	0	76
75	274	0	96
75	281	0	98
75	315	0	100
75	433	0	106
75	438	0	107
75	583	0	109
75	613	0	109
75	1434	0	135
75	1934	0	135
75	2082	0	135
75	2608	0	135
75	3224	0	137
75	4016	0	142
76	135	0	77
76	280	0	98
76	390	0	106
76	393	0	106
76	398	0	106
76	702	0	114
76	2038	0	135
76	2522	0	135
76	2614	0	135
76	2694	0	135
76	3208	0	137
76	4240	0	142
77	143	0	78
77	188	0	85
77	190	0	85
77	317	0	100
77	396	0	106
77	425	0	106
77	580	0	109
77	756	0	116
77	2022	0	135
77	2080	0	135
77	2178	0	135
77	2512	0	135
77	2612	0	135
77	2722	0	135
77	2880	0	135
77	4592	0	143
78	144	0	79
78	192	0	86
78	279	0	98
78	318	0	100
78	322	0	101
78	354	0	104
78	394	0	106
78	428	0	106
78	435	0	106
78	2058	0	135
78	3204	0	137
78	3212	0	137
78	4024	0	142
79	157	0	80
79	204	0	88
79	411	0	106
79	514	0	107
79	533	0	107
79	575	0	109
79	720	0	115
79	776	0	117
79	1212	0	133
79	1794	0	135
79	1954	0	135
79	2206	0	135
79	2388	0	135
79	2994	0	137
79	4184	0	142
79	4276	0	142
80	159	0	81
80	205	0	88
80	604	0	109
80	606	0	109
80	969	0	125
80	1286	0	134
80	2232	0	135
80	2562	0	135
80	2566	0	135
80	3260	0	137
80	3272	0	137
80	3460	0	137
81	167	0	82
81	176	0	83
81	240	0	95
81	508	0	107
81	549	0	107
81	562	0	109
81	657	0	110
81	1140	0	133
81	1788	0	135
81	2934	0	137
81	3788	0	141
81	4784	0	144
81	4816	0	144
81	4848	0	144
82	174	0	83
82	182	0	84
82	235	0	94
82	548	0	107
82	661	0	112
82	673	0	112
82	734	0	116
82	2280	0	135
82	2284	0	135
82	2310	0	135
82	3792	0	141
82	4356	0	142
82	4808	0	144
83	178	0	84
83	509	0	107
83	560	0	108
83	649	0	109
83	663	0	112
83	667	0	112
83	805	0	118
83	1110	0	128
83	1644	0	135
83	2312	0	135
83	2322	0	135
83	3776	0	141
83	3828	0	142
83	4804	0	144
83	4824	0	144
84	185	0	85
84	201	0	87
84	284	0	98
84	927	0	125
84	1572	0	135
84	1576	0	135
84	1708	0	135
84	1754	0	135
84	1880	0	135
84	1984	0	135
84	2468	0	135
84	2584	0	135
84	2830	0	135
84	3136	0	137
84	3320	0	137
84	3476	0	137
84	3496	0	137
84	3856	0	142
84	4420	0	142
84	4996	0	144
84	5004	0	144
85	191	0	86
85	193	0	86
85	316	0	100
85	429	0	106
85	432	0	106
85	434	0	106
85	579	0	109
85	748	0	116
85	757	0	116
85	2054	0	135
85	2516	0	135
85	2816	0	135
86	198	0	87
86	339	0	102
86	363	0	104
86	416	0	106
86	465	0	107
86	496	0	107
86	712	0	114
86	935	0	125
86	967	0	125
86	1166	0	133
86	1192	0	133
86	1374	0	134
86	1544	0	135
86	1692	0	135
86	1914	0	135
86	1988	0	135
86	2124	0	135
86	2350	0	135
86	2382	0	135
86	2544	0	135
86	2682	0	135
86	2832	0	135
86	3132	0	137
86	3384	0	137
86	4300	0	142
86	4752	0	144
86	4920	0	144
86	5092	0	144
87	203	0	88
87	207	0	89
87	342	0	103
87	472	0	107
87	714	0	114
87	840	0	118
87	910	0	118
87	1482	0	135
87	1494	0	135
87	1574	0	135
87	1710	0	135
87	2354	0	135
87	2378	0	135
87	2462	0	135
87	2906	0	137
87	2920	0	137
87	3268	0	137
87	3400	0	137
87	3464	0	137
87	3524	0	137
88	206	0	89
88	603	0	109
88	717	0	115
88	1476	0	135
88	1484	0	135
88	1804	0	135
88	1952	0	135
88	2264	0	135
88	2376	0	135
88	2908	0	137
88	3256	0	137
88	3276	0	137
88	3288	0	137
88	3452	0	137
88	3676	0	141
89	211	0	90
89	228	0	92
89	285	0	98
89	367	0	104
89	456	0	107
89	526	0	107
89	534	0	107
89	570	0	109
89	574	0	109
89	587	0	109
89	635	0	109
89	729	0	116
89	794	0	117
89	812	0	118
89	832	0	118
89	895	0	118
89	1156	0	133
89	1294	0	134
89	1598	0	135
89	1666	0	135
89	1836	0	135
89	1858	0	135
89	2004	0	135
89	2208	0	135
89	2230	0	135
89	2530	0	135
89	2542	0	135
89	2556	0	135
89	2634	0	135
89	2674	0	135
89	2968	0	137
89	3008	0	137
89	3044	0	137
89	3112	0	137
89	3540	0	137
89	3608	0	141
89	4052	0	142
89	4064	0	142
89	4464	0	142
89	4560	0	142
89	4640	0	144
89	4916	0	144
89	4964	0	144
89	4984	0	144
89	5024	0	144
89	5112	0	144
90	215	0	91
90	263	0	95
90	536	0	107
90	713	0	114
90	886	0	118
90	1150	0	133
90	1164	0	133
90	1322	0	134
90	1470	0	135
90	1578	0	135
90	2098	0	135
90	2104	0	135
90	2122	0	135
90	2384	0	135
90	2464	0	135
90	3108	0	137
90	3448	0	137
90	3864	0	142
90	3984	0	142
90	4116	0	142
90	4324	0	142
90	5164	0	144
91	224	0	92
91	247	0	95
91	406	0	106
91	450	0	107
91	538	0	107
91	691	0	114
91	767	0	116
91	811	0	118
91	858	0	118
91	869	0	118
91	875	0	118
91	972	0	125
91	1558	0	135
91	1670	0	135
91	1876	0	135
91	2092	0	135
91	2146	0	135
91	2154	0	135
91	2248	0	135
91	2474	0	135
91	2528	0	135
91	3156	0	137
91	4156	0	142
91	4508	0	142
91	4928	0	144
92	232	0	93
92	340	0	102
92	464	0	107
92	473	0	107
92	532	0	107
92	602	0	109
92	792	0	117
92	798	0	117
92	862	0	118
92	887	0	118
92	896	0	118
92	952	0	125
92	1452	0	135
92	1474	0	135
92	1780	0	135
92	1798	0	135
92	1866	0	135
92	1894	0	135
92	1902	0	135
92	1908	0	135
92	1970	0	135
92	1980	0	135
92	1996	0	135
92	2666	0	135
92	2940	0	137
92	2996	0	137
92	3024	0	137
92	3668	0	141
92	4100	0	142
92	5020	0	144
92	5040	0	144
93	233	0	94
93	248	0	95
93	387	0	106
93	470	0	107
93	596	0	109
93	833	0	118
93	855	0	118
93	857	0	118
93	899	0	118
93	986	0	125
93	1042	0	125
93	1182	0	133
93	1244	0	133
93	1394	0	134
93	1404	0	134
93	1514	0	135
93	1616	0	135
93	1622	0	135
93	1632	0	135
93	1778	0	135
93	1860	0	135
93	1978	0	135
93	2148	0	135
93	2216	0	135
93	2742	0	135
93	2752	0	135
93	2790	0	135
93	2828	0	135
93	3664	0	141
93	3688	0	141
93	3912	0	142
93	4372	0	142
93	4492	0	142
93	4504	0	142
93	4912	0	144
94	237	0	95
94	670	0	112
94	806	0	118
94	1218	0	133
94	2290	0	135
94	2306	0	135
94	2366	0	135
94	2930	0	137
94	3748	0	141
94	4168	0	142
95	266	0	96
95	329	0	102
95	336	0	102
95	485	0	107
95	617	0	109
95	621	0	109
95	742	0	116
95	778	0	117
95	817	0	118
95	823	0	118
95	944	0	125
95	1170	0	133
95	1312	0	134
95	1420	0	135
95	1686	0	135
95	1944	0	135
95	2046	0	135
95	2190	0	135
95	2502	0	135
95	2708	0	135
95	2712	0	135
95	2760	0	135
95	2956	0	137
95	3048	0	137
95	3508	0	137
95	3588	0	139
95	3700	0	141
95	3932	0	142
95	4004	0	142
95	4068	0	142
95	4220	0	142
95	4648	0	144
96	276	0	97
96	395	0	106
96	749	0	116
96	1014	0	125
96	1548	0	135
96	2034	0	135
96	2052	0	135
96	2506	0	135
96	2514	0	135
96	2520	0	135
97	278	0	98
97	431	0	106
97	490	0	107
97	701	0	114
97	2510	0	135
98	289	0	99
98	373	0	104
98	382	0	106
98	454	0	107
98	505	0	107
98	568	0	109
98	608	0	109
98	624	0	109
98	787	0	117
98	893	0	118
98	962	0	125
98	1058	0	128
98	1066	0	128
98	1144	0	133
98	1326	0	134
98	1508	0	135
98	1640	0	135
98	2166	0	135
98	2242	0	135
98	2348	0	135
98	2622	0	135
98	2848	0	135
98	3080	0	137
98	3096	0	137
98	3120	0	137
98	3724	0	141
98	3952	0	142
98	4512	0	142
98	4632	0	144
98	4856	0	144
98	4884	0	144
99	312	0	100
99	524	0	107
99	640	0	109
99	772	0	116
99	781	0	117
99	836	0	118
99	934	0	125
99	995	0	125
99	1206	0	133
99	1248	0	133
99	1526	0	135
99	1614	0	135
99	1870	0	135
99	1890	0	135
99	2152	0	135
99	2484	0	135
99	2746	0	135
99	2792	0	135
99	2952	0	137
99	3236	0	137
99	3344	0	137
99	3636	0	141
99	3712	0	141
99	3924	0	142
99	3936	0	142
99	4452	0	142
99	4740	0	144
99	4768	0	144
100	319	0	101
100	355	0	104
100	685	0	114
100	1188	0	133
100	1626	0	135
100	2032	0	135
100	2740	0	135
100	2818	0	135
100	3216	0	137
100	3364	0	137
100	3420	0	137
100	3564	0	137
100	4712	0	144
100	5148	0	144
101	326	0	102
101	391	0	106
101	448	0	107
101	584	0	109
101	752	0	116
101	1010	0	125
101	1388	0	134
101	1428	0	135
101	1552	0	135
101	1744	0	135
101	2026	0	135
101	2050	0	135
101	2078	0	135
101	2186	0	135
101	3068	0	137
101	4028	0	142
101	4384	0	142
101	4392	0	142
101	4704	0	144
102	341	0	103
102	718	0	115
102	721	0	115
102	1480	0	135
102	1592	0	135
102	2668	0	135
102	3292	0	137
103	345	0	104
103	522	0	107
103	695	0	114
103	744	0	116
103	1016	0	125
103	2558	0	135
103	2662	0	135
103	2768	0	135
103	2856	0	135
103	3440	0	137
103	3596	0	140
103	3876	0	142
103	3892	0	142
103	4032	0	142
103	4288	0	142
103	5140	0	144
104	376	0	105
104	379	0	105
104	1070	0	128
104	1074	0	128
104	1770	0	135
104	2346	0	135
105	381	0	106
105	512	0	107
105	547	0	107
105	565	0	109
105	675	0	113
105	774	0	116
105	808	0	118
105	1214	0	133
105	1228	0	133
105	2362	0	135
105	2374	0	135
105	3176	0	137
105	3500	0	137
105	3836	0	142
105	4076	0	142
105	4780	0	144
106	436	0	107
106	2056	0	135
106	2886	0	135
106	2892	0	137
106	2896	0	137
107	559	0	108
107	656	0	110
107	1084	0	128
107	1766	0	135
107	2272	0	135
107	2278	0	135
107	2294	0	135
107	2318	0	135
107	4172	0	142
107	4800	0	144
108	561	0	109
108	648	0	109
108	654	0	110
108	1088	0	128
108	1226	0	133
108	1786	0	135
108	2372	0	135
109	650	0	110
109	2298	0	135
109	3740	0	141
109	3800	0	141
110	658	0	111
110	1080	0	128
110	2340	0	135
111	659	0	112
111	672	0	112
111	956	0	125
111	1076	0	128
111	1086	0	128
111	1142	0	133
111	2282	0	135
111	2846	0	135
111	3760	0	141
111	4176	0	142
111	4820	0	144
111	4844	0	144
111	4852	0	144
112	674	0	113
112	1216	0	133
112	1764	0	135
112	2270	0	135
112	2364	0	135
113	682	0	114
113	716	0	115
113	800	0	117
113	904	0	118
113	920	0	124
113	990	0	125
113	1152	0	133
113	1800	0	135
113	2386	0	135
113	2564	0	135
114	715	0	115
114	799	0	117
114	909	0	118
114	919	0	124
114	1288	0	134
114	1460	0	135
114	1468	0	135
114	3264	0	137
114	4112	0	142
114	4952	0	144
115	722	0	116
115	791	0	117
115	795	0	117
115	911	0	118
115	925	0	125
115	1454	0	135
115	1910	0	135
115	2120	0	135
115	2132	0	135
115	2560	0	135
115	3296	0	137
115	3528	0	137
116	775	0	117
116	809	0	118
116	903	0	118
116	906	0	118
116	922	0	124
116	970	0	125
116	981	0	125
116	1678	0	135
116	1752	0	135
116	1758	0	135
116	1796	0	135
116	1806	0	135
116	2100	0	135
116	2466	0	135
116	2922	0	137
116	3144	0	137
116	3168	0	137
116	3180	0	137
116	3456	0	137
116	3868	0	142
116	4364	0	142
116	4776	0	144
117	801	0	118
117	905	0	118
117	1756	0	135
117	1792	0	135
117	2258	0	135
117	2262	0	135
117	2266	0	135
117	3140	0	137
117	4992	0	144
117	5000	0	144
118	912	0	119
118	1456	0	135
119	913	0	120
119	915	0	121
120	914	0	121
120	1464	0	135
121	916	0	122
121	1462	0	135
121	1466	0	135
122	917	0	123
122	1458	0	135
123	918	0	124
123	4948	0	144
124	923	0	125
124	977	0	125
124	1680	0	135
124	1802	0	135
124	2260	0	135
124	2912	0	137
124	3324	0	137
124	4272	0	142
124	5008	0	144
125	1112	0	129
125	1116	0	130
125	2326	0	135
125	3812	0	142
126	1128	0	133
126	2330	0	135
127	1790	0	135
127	2268	0	135
128	2888	0	136
129	2890	0	137
130	3804	0	142
131	4812	0	144

