file 76271 1756984397                                           
version 3
run General-188-20250904-14:13:17-15512
attr configname General
attr datetime 20250904-14:13:17
attr datetimef 20250904-141317
attr experiment General
attr inifile omnetpp.ini
attr iterationvars ""
attr iterationvarsd ""
attr iterationvarsf ""
attr measurement ""
attr network TaxiNetwork
attr processid 15512
attr repetition 188
attr replication #188
attr resultdir results
attr runnumber 188
attr seedset 188
config network TaxiNetwork
config seed-set 188
config num-rngs 1
config sim-time-limit 10s
config repeat 500
config *.numWalkers 1
config *.enableDuplication true
config *.rc 700
config **.node[0].xCor 2933
config **.node[0].yCor 2747
config **.node[1].xCor 2919
config **.node[1].yCor 2817
config **.node[2].xCor 2910
config **.node[2].yCor 2861
config **.node[3].xCor 2429
config **.node[3].yCor 2851
config **.node[4].xCor 2908
config **.node[4].yCor 2714
config **.node[5].xCor 2606
config **.node[5].yCor 2722
config **.node[6].xCor 2575
config **.node[6].yCor 2753
config **.node[7].xCor 2654
config **.node[7].yCor 2513
config **.node[8].xCor 2773
config **.node[8].yCor 2580
config **.node[9].xCor 3043
config **.node[9].yCor 2780
config **.node[10].xCor 3020
config **.node[10].yCor 2813
config **.node[11].xCor 2599
config **.node[11].yCor 2300
config **.node[12].xCor 2917
config **.node[12].yCor 2698
config **.node[13].xCor 2625
config **.node[13].yCor 2641
config **.node[14].xCor 2604
config **.node[14].yCor 2790
config **.node[15].xCor 2786
config **.node[15].yCor 3082
config **.node[16].xCor 2603
config **.node[16].yCor 2802
config **.node[17].xCor 2637
config **.node[17].yCor 2869
config **.node[18].xCor 2675
config **.node[18].yCor 2955
config **.node[19].xCor 2845
config **.node[19].yCor 2937
config **.node[20].xCor 2860
config **.node[20].yCor 2888
config **.node[21].xCor 2843
config **.node[21].yCor 4158
config **.node[22].xCor 2852
config **.node[22].yCor 4017
config **.node[23].xCor 2892
config **.node[23].yCor 4961
config **.node[24].xCor 2313
config **.node[24].yCor 3993
config **.node[25].xCor 2891
config **.node[25].yCor 4959
config **.node[26].xCor 2370
config **.node[26].yCor 4050
config **.node[27].xCor 2788
config **.node[27].yCor 3958
config **.node[28].xCor 2819
config **.node[28].yCor 4428
config **.node[29].xCor 2790
config **.node[29].yCor 3761
config **.node[30].xCor 2809
config **.node[30].yCor 2908
config **.node[31].xCor 2919
config **.node[31].yCor 3575
config **.node[32].xCor 2946
config **.node[32].yCor 3466
config **.node[33].xCor 2911
config **.node[33].yCor 3453
config **.node[34].xCor 2370
config **.node[34].yCor 3656
config **.node[35].xCor 2438
config **.node[35].yCor 3738
config **.node[36].xCor 2737
config **.node[36].yCor 3570
config **.node[37].xCor 2921
config **.node[37].yCor 3698
config **.node[38].xCor 2907
config **.node[38].yCor 5197
config **.node[39].xCor 2860
config **.node[39].yCor 3852
config **.node[40].xCor 2927
config **.node[40].yCor 3684
config **.node[41].xCor 3023
config **.node[41].yCor 5313
config **.node[42].xCor 3220
config **.node[42].yCor 5811
config **.node[43].xCor 3432
config **.node[43].yCor 5715
config **.node[44].xCor 2754
config **.node[44].yCor 2463
config **.node[45].xCor 2646
config **.node[45].yCor 2673
config **.node[46].xCor 3051
config **.node[46].yCor 2792
config **.node[47].xCor 1666
config **.node[47].yCor 3697
config **.node[48].xCor 1662
config **.node[48].yCor 3694
config **.node[49].xCor 1664
config **.node[49].yCor 3667
config **.node[50].xCor 1660
config **.node[50].yCor 3664
config **.node[51].xCor 1710
config **.node[51].yCor 3573
config **.node[52].xCor 2082
config **.node[52].yCor 2650
config **.node[53].xCor 2086
config **.node[53].yCor 2657
config **.node[54].xCor 2257
config **.node[54].yCor 3232
config **.node[55].xCor 2258
config **.node[55].yCor 3225
config **.node[56].xCor 1926
config **.node[56].yCor 2570
config **.node[57].xCor 1926
config **.node[57].yCor 2576
config **.node[58].xCor 2104
config **.node[58].yCor 1758
config **.node[59].xCor 1957
config **.node[59].yCor 1826
config **.node[60].xCor 3473
config **.node[60].yCor 1523
config **.node[61].xCor 3335
config **.node[61].yCor 1726
config **.node[62].xCor 3478
config **.node[62].yCor 1517
config **.node[63].xCor 3386
config **.node[63].yCor 2119
config **.node[64].xCor 3474
config **.node[64].yCor 1762
config **.node[65].xCor 3797
config **.node[65].yCor 2099
config **.node[66].xCor 3642
config **.node[66].yCor 2136
config **.node[67].xCor 3481
config **.node[67].yCor 2334
config **.node[68].xCor 3088
config **.node[68].yCor 1505
config **.node[69].xCor 3037
config **.node[69].yCor 1693
config **.node[70].xCor 3026
config **.node[70].yCor 1700
config **.node[71].xCor 3019
config **.node[71].yCor 669
config **.node[72].xCor 3513
config **.node[72].yCor 1358
config **.node[73].xCor 3545
config **.node[73].yCor 1230
config **.node[74].xCor 4228
config **.node[74].yCor 4220
config **.node[75].xCor 3379
config **.node[75].yCor 1207
config **.node[76].xCor 3596
config **.node[76].yCor 963
config **.node[77].xCor 3637
config **.node[77].yCor 1188
config **.node[78].xCor 3759
config **.node[78].yCor 1030
config **.node[79].xCor 2918
config **.node[79].yCor 1455
config **.node[80].xCor 2711
config **.node[80].yCor 1297
config **.node[81].xCor 439
config **.node[81].yCor 1623
config **.node[82].xCor 2857
config **.node[82].yCor 3581
config **.node[83].xCor 2858
config **.node[83].yCor 3584
config **.node[84].xCor 2999
config **.node[84].yCor 2636
config **.node[85].xCor 2905
config **.node[85].yCor 2778
config **.node[86].xCor 2653
config **.node[86].yCor 2845
config **.node[87].xCor 2864
config **.node[87].yCor 2836
config **.node[88].xCor 2426
config **.node[88].yCor 2892
config **.node[89].xCor 2964
config **.node[89].yCor 2804
config **.node[90].xCor 2586
config **.node[90].yCor 3135
config **.node[91].xCor 2864
config **.node[91].yCor 2980
config **.node[92].xCor 2527
config **.node[92].yCor 3219
config **.node[93].xCor 2863
config **.node[93].yCor 3142
config **.node[94].xCor 2485
config **.node[94].yCor 3269
config **.node[95].xCor 2653
config **.node[95].yCor 1065
config **.node[96].xCor 4062
config **.node[96].yCor 400
config **.node[97].xCor 5762
config **.node[97].yCor 3023
config **.node[98].xCor 1414
config **.node[98].yCor 3461
config **.node[99].xCor 2911
config **.node[99].yCor 1737
config **.node[100].xCor 2595
config **.node[100].yCor 2299
config **.node[101].xCor 2702
config **.node[101].yCor 3419
config **.node[102].xCor 2813
config **.node[102].yCor 3307
config **.node[103].xCor 2638
config **.node[103].yCor 2258
config **.node[104].xCor 2590
config **.node[104].yCor 3125
config **.node[105].xCor 1856
config **.node[105].yCor 2990
config **.node[106].xCor 1894
config **.node[106].yCor 2239
config **.node[107].xCor 383
config **.node[107].yCor 1251
config **.node[108].xCor 3447
config **.node[108].yCor 5489
config **.node[109].xCor 3450
config **.node[109].yCor 5697
config **.node[110].xCor 2719
config **.node[110].yCor 1920
config **.node[111].xCor 2085
config **.node[111].yCor 2389
config **.node[112].xCor 1910
config **.node[112].yCor 2548
config **.node[113].xCor 2069
config **.node[113].yCor 2050
config **.node[114].xCor 2184
config **.node[114].yCor 2209
config **.node[115].xCor 2278
config **.node[115].yCor 2390
config **.node[116].xCor 2249
config **.node[116].yCor 2299
config **.node[117].xCor 2356
config **.node[117].yCor 2303
config **.node[118].xCor 2192
config **.node[118].yCor 2475
config **.node[119].xCor 1720
config **.node[119].yCor 2911
config **.node[120].xCor 2400
config **.node[120].yCor 2887
config **.node[121].xCor 3344
config **.node[121].yCor 1890
config **.node[122].xCor 3136
config **.node[122].yCor 2418
config **.node[123].xCor 3243
config **.node[123].yCor 2525
config **.node[124].xCor 2396
config **.node[124].yCor 1267
config **.node[125].xCor 467
config **.node[125].yCor 1875
config **.node[126].xCor 3506
config **.node[126].yCor 1221
config **.node[127].xCor 1034
config **.node[127].yCor 1474
config **.node[128].xCor 2908
config **.node[128].yCor 1784
config **.node[129].xCor 2876
config **.node[129].yCor 1761
config **.node[130].xCor 2849
config **.node[130].yCor 1795
config **.node[131].xCor 3029
config **.node[131].yCor 1859
config **.node[132].xCor 2924
config **.node[132].yCor 1848
config **.node[133].xCor 3493
config **.node[133].yCor 1559
config **.node[134].xCor 2760
config **.node[134].yCor 1761
config **.node[135].xCor 1644
config **.node[135].yCor 3755
config **.node[136].xCor 1463
config **.node[136].yCor 3432
config **.node[137].xCor 2595
config **.node[137].yCor 2849
config **.node[138].xCor 2581
config **.node[138].yCor 2867
config **.node[139].xCor 2524
config **.node[139].yCor 2911
config **.node[140].xCor 2570
config **.node[140].yCor 2924
config **.node[141].xCor 2676
config **.node[141].yCor 2890
config **.node[142].xCor 2666
config **.node[142].yCor 2876
config **.node[143].xCor 3735
config **.node[143].yCor 1726
config **.node[144].xCor 1637
config **.node[144].yCor 3438

vector 0 TaxiNetwork.node[19] visitedPerTimestep ETV
vector 1 TaxiNetwork.node[1] visitedPerTimestep ETV
vector 2 TaxiNetwork.node[3] visitedPerTimestep ETV
vector 3 TaxiNetwork.node[137] visitedPerTimestep ETV
vector 4 TaxiNetwork.node[0] visitedPerTimestep ETV
vector 5 TaxiNetwork.node[17] visitedPerTimestep ETV
vector 6 TaxiNetwork.node[54] visitedPerTimestep ETV
vector 7 TaxiNetwork.node[30] visitedPerTimestep ETV
vector 8 TaxiNetwork.node[87] visitedPerTimestep ETV
vector 9 TaxiNetwork.node[93] visitedPerTimestep ETV
vector 10 TaxiNetwork.node[139] visitedPerTimestep ETV
vector 11 TaxiNetwork.node[7] visitedPerTimestep ETV
vector 12 TaxiNetwork.node[85] visitedPerTimestep ETV
vector 13 TaxiNetwork.node[13] visitedPerTimestep ETV
vector 14 TaxiNetwork.node[55] visitedPerTimestep ETV
vector 15 TaxiNetwork.node[91] visitedPerTimestep ETV
vector 16 TaxiNetwork.node[111] visitedPerTimestep ETV
vector 17 TaxiNetwork.node[120] visitedPerTimestep ETV
vector 18 TaxiNetwork.node[88] visitedPerTimestep ETV
vector 19 TaxiNetwork.node[10] visitedPerTimestep ETV
vector 20 TaxiNetwork.node[16] visitedPerTimestep ETV
vector 21 TaxiNetwork.node[115] visitedPerTimestep ETV
vector 22 TaxiNetwork.node[5] visitedPerTimestep ETV
vector 23 TaxiNetwork.node[123] visitedPerTimestep ETV
vector 24 TaxiNetwork.node[14] visitedPerTimestep ETV
vector 25 TaxiNetwork.node[74] visitedPerTimestep ETV
vector 26 TaxiNetwork.node[109] visitedPerTimestep ETV
vector 27 TaxiNetwork.node[108] visitedPerTimestep ETV
vector 28 TaxiNetwork.node[42] visitedPerTimestep ETV
vector 29 TaxiNetwork.node[43] visitedPerTimestep ETV
vector 30 TaxiNetwork.node[38] visitedPerTimestep ETV
vector 31 TaxiNetwork.node[25] visitedPerTimestep ETV
vector 32 TaxiNetwork.node[28] visitedPerTimestep ETV
vector 33 TaxiNetwork.node[22] visitedPerTimestep ETV
vector 34 TaxiNetwork.node[27] visitedPerTimestep ETV
vector 35 TaxiNetwork.node[102] visitedPerTimestep ETV
vector 36 TaxiNetwork.node[8] visitedPerTimestep ETV
vector 37 TaxiNetwork.node[46] visitedPerTimestep ETV
vector 38 TaxiNetwork.node[92] visitedPerTimestep ETV
vector 39 TaxiNetwork.node[141] visitedPerTimestep ETV
vector 40 TaxiNetwork.node[33] visitedPerTimestep ETV
vector 41 TaxiNetwork.node[45] visitedPerTimestep ETV
vector 42 TaxiNetwork.node[90] visitedPerTimestep ETV
vector 43 TaxiNetwork.node[35] visitedPerTimestep ETV
vector 44 TaxiNetwork.node[40] visitedPerTimestep ETV
vector 45 TaxiNetwork.node[36] visitedPerTimestep ETV
vector 46 TaxiNetwork.node[82] visitedPerTimestep ETV
vector 47 TaxiNetwork.node[94] visitedPerTimestep ETV
vector 48 TaxiNetwork.node[39] visitedPerTimestep ETV
vector 49 TaxiNetwork.node[21] visitedPerTimestep ETV
vector 50 TaxiNetwork.node[29] visitedPerTimestep ETV
vector 51 TaxiNetwork.node[140] visitedPerTimestep ETV
vector 52 TaxiNetwork.node[24] visitedPerTimestep ETV
vector 53 TaxiNetwork.node[31] visitedPerTimestep ETV
vector 54 TaxiNetwork.node[23] visitedPerTimestep ETV
vector 55 TaxiNetwork.node[41] visitedPerTimestep ETV
vector 56 TaxiNetwork.node[122] visitedPerTimestep ETV
vector 57 TaxiNetwork.node[104] visitedPerTimestep ETV
vector 58 TaxiNetwork.node[84] visitedPerTimestep ETV
vector 59 TaxiNetwork.node[100] visitedPerTimestep ETV
vector 60 TaxiNetwork.node[116] visitedPerTimestep ETV
vector 61 TaxiNetwork.node[11] visitedPerTimestep ETV
vector 62 TaxiNetwork.node[89] visitedPerTimestep ETV
vector 63 TaxiNetwork.node[138] visitedPerTimestep ETV
vector 64 TaxiNetwork.node[6] visitedPerTimestep ETV
vector 65 TaxiNetwork.node[53] visitedPerTimestep ETV
vector 66 TaxiNetwork.node[119] visitedPerTimestep ETV
vector 67 TaxiNetwork.node[57] visitedPerTimestep ETV
vector 68 TaxiNetwork.node[106] visitedPerTimestep ETV
vector 69 TaxiNetwork.node[114] visitedPerTimestep ETV
vector 70 TaxiNetwork.node[15] visitedPerTimestep ETV
vector 71 TaxiNetwork.node[44] visitedPerTimestep ETV
vector 72 TaxiNetwork.node[18] visitedPerTimestep ETV
vector 73 TaxiNetwork.node[20] visitedPerTimestep ETV
vector 74 TaxiNetwork.node[86] visitedPerTimestep ETV
vector 75 TaxiNetwork.node[52] visitedPerTimestep ETV
vector 76 TaxiNetwork.node[118] visitedPerTimestep ETV
vector 77 TaxiNetwork.node[112] visitedPerTimestep ETV
vector 78 TaxiNetwork.node[113] visitedPerTimestep ETV
vector 79 TaxiNetwork.node[103] visitedPerTimestep ETV
vector 80 TaxiNetwork.node[32] visitedPerTimestep ETV
vector 81 TaxiNetwork.node[83] visitedPerTimestep ETV
vector 82 TaxiNetwork.node[4] visitedPerTimestep ETV
vector 83 TaxiNetwork.node[2] visitedPerTimestep ETV
vector 84 TaxiNetwork.node[12] visitedPerTimestep ETV
vector 85 TaxiNetwork.node[67] visitedPerTimestep ETV
vector 86 TaxiNetwork.node[37] visitedPerTimestep ETV
vector 87 TaxiNetwork.node[9] visitedPerTimestep ETV
vector 88 TaxiNetwork.node[26] visitedPerTimestep ETV
vector 89 TaxiNetwork.node[105] visitedPerTimestep ETV
vector 90 TaxiNetwork.node[34] visitedPerTimestep ETV
vector 91 TaxiNetwork.node[51] visitedPerTimestep ETV
vector 92 TaxiNetwork.node[142] visitedPerTimestep ETV
vector 93 TaxiNetwork.node[63] visitedPerTimestep ETV
vector 94 TaxiNetwork.node[64] visitedPerTimestep ETV
vector 95 TaxiNetwork.node[70] visitedPerTimestep ETV
vector 96 TaxiNetwork.node[60] visitedPerTimestep ETV
vector 97 TaxiNetwork.node[73] visitedPerTimestep ETV
vector 98 TaxiNetwork.node[72] visitedPerTimestep ETV
vector 99 TaxiNetwork.node[75] visitedPerTimestep ETV
vector 100 TaxiNetwork.node[79] visitedPerTimestep ETV
vector 101 TaxiNetwork.node[68] visitedPerTimestep ETV
vector 102 TaxiNetwork.node[134] visitedPerTimestep ETV
vector 103 TaxiNetwork.node[128] visitedPerTimestep ETV
vector 104 TaxiNetwork.node[99] visitedPerTimestep ETV
vector 105 TaxiNetwork.node[69] visitedPerTimestep ETV
vector 106 TaxiNetwork.node[133] visitedPerTimestep ETV
vector 107 TaxiNetwork.node[78] visitedPerTimestep ETV
vector 108 TaxiNetwork.node[143] visitedPerTimestep ETV
vector 109 TaxiNetwork.node[77] visitedPerTimestep ETV
vector 110 TaxiNetwork.node[124] visitedPerTimestep ETV
vector 111 TaxiNetwork.node[110] visitedPerTimestep ETV
vector 112 TaxiNetwork.node[117] visitedPerTimestep ETV
vector 113 TaxiNetwork.node[59] visitedPerTimestep ETV
vector 114 TaxiNetwork.node[101] visitedPerTimestep ETV
vector 115 TaxiNetwork.node[130] visitedPerTimestep ETV
vector 116 TaxiNetwork.node[80] visitedPerTimestep ETV
vector 117 TaxiNetwork.node[126] visitedPerTimestep ETV
vector 118 TaxiNetwork.node[131] visitedPerTimestep ETV
vector 119 TaxiNetwork.node[61] visitedPerTimestep ETV
vector 120 TaxiNetwork.node[129] visitedPerTimestep ETV
vector 121 TaxiNetwork.node[95] visitedPerTimestep ETV
vector 122 TaxiNetwork.node[71] visitedPerTimestep ETV
vector 123 TaxiNetwork.node[66] visitedPerTimestep ETV
vector 124 TaxiNetwork.node[62] visitedPerTimestep ETV
vector 125 TaxiNetwork.node[58] visitedPerTimestep ETV
vector 126 TaxiNetwork.node[56] visitedPerTimestep ETV
vector 127 TaxiNetwork.node[136] visitedPerTimestep ETV
vector 128 TaxiNetwork.node[49] visitedPerTimestep ETV
vector 129 TaxiNetwork.node[50] visitedPerTimestep ETV
vector 130 TaxiNetwork.node[144] visitedPerTimestep ETV
vector 131 TaxiNetwork.node[76] visitedPerTimestep ETV
vector 132 TaxiNetwork.node[121] visitedPerTimestep ETV
vector 133 TaxiNetwork.node[132] visitedPerTimestep ETV
vector 134 TaxiNetwork.node[65] visitedPerTimestep ETV
vector 135 TaxiNetwork.node[135] visitedPerTimestep ETV
vector 136 TaxiNetwork.node[48] visitedPerTimestep ETV
vector 137 TaxiNetwork.node[98] visitedPerTimestep ETV
vector 138 TaxiNetwork.node[47] visitedPerTimestep ETV
vector 139 TaxiNetwork.node[127] visitedPerTimestep ETV
0	16698 610 1 15192 0 0 48 1 143 6231 843005
1	17308 551 2 17192 0 0 43 2 144 5794 804550
2	17859 716 3 15480 0 0 56 3 143 7406 1016584
3	18575 769 4 18408 0 0 60 4 144 7948 1093170
4	19344 652 5 16664 0 0 51 5 144 6708 918642
5	19996 798 6 17864 0 0 62 6 144 8215 1127347
6	20794 590 7 15416 0 0 46 7 143 6198 857770
7	21384 702 8 16936 0 0 55 8 144 7224 978666
8	22086 844 9 18568 0 0 66 9 144 8605 1172751
9	22930 708 10 18504 0 0 56 10 144 7201 973775
10	23638 811 11 18328 0 0 59 11 144 7714 1055582
11	24449 653 12 17848 0 0 47 12 144 6289 866623
12	25102 752 13 18520 0 0 54 13 144 7199 992727
13	25854 614 14 16952 0 0 45 14 144 5677 763401
14	26468 677 16 17528 0 0 49 15 144 6385 865345
15	27145 845 17 18088 0 0 61 16 144 8165 1120239
16	27990 306 19 16760 0 0 22 17 144 2891 397115
17	28296 774 20 17896 0 0 56 18 144 7448 1023364
18	29070 1181 21 18264 0 0 85 19 144 11264 1538194
19	30251 738 23 16728 0 0 54 20 144 6783 901947
20	30989 872 24 18552 0 0 63 21 144 8340 1134470
21	31861 560 25 18232 0 0 41 22 144 5299 717397
22	32421 746 27 17288 0 0 54 23 144 7093 959809
23	33167 463 28 19032 0 0 33 24 144 4404 605456
24	33630 753 29 16312 0 0 54 25 144 7302 1007166
25	34383 117 31 9576 0 0 9 26 143 906 111480
26	34500 106 32 126 0 0 9 27 56 475 25817
27	34606 129 33 127 0 0 11 28 56 562 29908
28	34735 127 34 128 0 0 11 29 56 563 29965
29	34862 47 35 124 0 0 4 30 56 198 10308
30	34909 57 38 129 0 0 5 31 56 255 13505
31	34966 34 39 131 0 0 3 32 56 142 7076
32	35000 129 40 17448 0 0 10 33 144 964 114136
33	35129 223 41 17112 0 0 16 34 144 2137 296133
34	35352 224 42 16840 0 0 16 35 144 2076 286198
35	35576 885 43 17784 0 0 64 36 144 8443 1151679
36	36461 581 46 17912 0 0 41 37 144 5659 792317
37	37042 649 47 15688 0 0 47 38 143 6275 854783
38	37691 865 48 17800 0 0 62 39 144 8413 1160493
39	38556 769 49 15368 0 0 56 40 143 7230 977094
40	39325 584 53 16824 0 0 42 41 144 5628 773772
41	39909 715 59 18168 0 0 52 42 144 6856 930900
42	40624 829 62 18136 0 0 60 43 144 7853 1056743
43	41453 345 63 17384 0 0 25 44 144 3235 437599
44	41798 339 64 16568 0 0 25 45 144 3056 396698
45	42137 524 66 17400 0 0 38 46 144 4985 677465
46	42661 469 67 16632 0 0 34 47 144 4510 614156
47	43130 696 72 18296 0 0 50 48 144 6524 878498
48	43826 291 73 17464 0 0 21 49 144 2709 365781
49	44117 206 74 10688 0 0 15 50 143 1976 268206
50	44323 275 75 17128 0 0 20 51 144 2585 350193
51	44598 749 78 17032 0 0 54 52 144 7242 987510
52	45347 234 80 17432 0 0 17 53 144 2250 307218
53	45581 370 82 17368 0 0 27 54 144 3555 480325
54	45951 60 87 2628 0 0 5 55 140 362 31922
55	46011 45 90 105 0 0 4 56 56 224 12544
56	46056 482 138 14568 0 0 35 57 143 4553 607141
57	46538 987 140 17688 0 0 71 58 144 9434 1280122
58	47525 602 141 18120 0 0 43 59 144 5813 797145
59	48127 634 143 18536 0 0 46 60 144 6119 829443
60	48761 379 145 16184 0 0 27 61 144 3665 508507
61	49140 640 146 18456 0 0 46 62 144 6286 866720
62	49780 729 149 15576 0 0 52 63 143 7139 989515
63	50509 591 153 18472 0 0 43 64 144 5722 774448
64	51100 741 154 17000 0 0 53 65 144 7152 981752
65	51841 631 155 17608 0 0 45 66 144 6181 855687
66	52472 219 156 14784 0 0 16 67 143 2081 277837
67	52691 218 157 16200 0 0 16 68 144 2082 278248
68	52909 193 158 13832 0 0 14 69 143 1843 247767
69	53102 290 160 16344 0 0 21 70 144 2748 370236
70	53392 639 163 18344 0 0 47 71 144 5978 785400
71	54031 820 164 18152 0 0 58 72 144 8032 1120574
72	54851 647 167 17512 0 0 47 73 144 6104 815404
73	55498 666 168 17544 0 0 48 74 144 6396 865870
74	56164 617 169 18392 0 0 44 75 144 5956 818668
75	56781 560 172 17928 0 0 40 76 144 5458 752738
76	57341 439 175 17656 0 0 32 77 144 4282 581826
77	57780 180 176 15064 0 0 13 78 143 1704 228806
78	57960 234 182 16776 0 0 17 79 144 2248 303364
79	58194 740 187 16744 0 0 53 80 144 7199 988257
80	58934 654 191 17240 0 0 47 81 144 6386 876978
81	59588 502 192 17496 0 0 36 82 144 4810 654130
82	60090 746 195 17960 0 0 53 83 144 7376 1031122
83	60836 733 199 17816 0 0 52 84 144 7159 992637
84	61569 789 207 13488 0 0 57 85 143 7683 1048243
85	62358 204 221 12880 0 0 15 86 143 1998 269074
86	62562 388 263 17416 0 0 28 87 144 3741 507839
87	62950 682 302 17176 0 0 49 88 144 6630 907082
88	63632 185 328 17480 0 0 13 89 144 1783 247143
89	63817 281 336 18280 0 0 20 90 144 2717 373993
90	64098 375 348 12784 0 0 27 91 143 3653 497529
91	64473 294 353 14832 0 0 21 92 143 2887 399361
92	64767 739 381 16904 0 0 53 93 144 7302 1010792
93	65506 324 404 19128 0 0 23 94 144 3144 434044
94	65830 207 405 19160 0 0 15 95 144 2010 271528
95	66037 241 406 19592 0 0 17 96 144 2339 324301
96	66278 310 407 19672 0 0 22 97 144 3053 425727
97	66588 153 408 15912 0 0 11 98 143 1501 206519
98	66741 222 409 19576 0 0 16 99 144 2151 291477
99	66963 210 410 19560 0 0 15 100 144 2038 278680
100	67173 274 411 19688 0 0 18 101 144 2471 341519
101	67447 283 412 19320 0 0 19 102 144 2567 349243
102	67730 300 413 19480 0 0 20 103 144 2706 368670
103	68030 332 414 19496 0 0 22 104 144 3014 415412
104	68362 360 417 19240 0 0 24 105 144 3259 445465
105	68722 256 418 19416 0 0 17 106 144 2336 322498
106	68978 333 419 19624 0 0 22 107 144 3077 431691
107	69311 59 420 9944 0 0 4 108 143 533 71883
108	69370 211 421 19096 0 0 14 109 144 1897 259185
109	69581 227 422 19544 0 0 15 110 144 2050 281630
110	69808 146 427 10144 0 0 10 111 143 1322 175972
111	69954 269 429 19704 0 0 18 112 145 2458 336970
112	70223 637 439 16360 0 0 42 113 144 5870 821836
113	70860 151 443 18200 0 0 10 114 144 1379 190931
114	71011 729 454 18360 0 0 48 115 144 6726 944256
115	71740 206 466 19272 0 0 14 116 144 1867 250347
116	71946 146 467 8600 0 0 10 117 143 1345 181535
117	72092 242 469 19208 0 0 16 118 144 2206 305230
118	72334 317 478 19464 0 0 21 119 144 2915 405567
119	72651 240 479 18760 0 0 16 120 144 2175 296817
120	72891 163 483 10136 0 0 11 121 143 1486 201444
121	73054 58 487 8592 0 0 4 122 143 530 70558
122	73112 28 488 979 0 0 2 123 134 257 33085
123	73140 106 578 19080 0 0 7 124 144 968 134174
124	73246 352 581 19656 0 0 23 125 144 3231 454473
125	73598 194 591 18216 0 0 13 126 144 1815 253739
126	73792 268 600 15528 0 0 18 127 143 2487 344185
127	74060 137 745 14856 0 0 9 128 143 1253 174641
128	74197 195 746 14840 0 0 13 129 143 1797 248665
129	74392 253 747 13584 0 0 17 130 143 2361 328193
130	74645 271 749 14864 0 0 18 131 143 2521 353319
131	74916 104 865 19640 0 0 7 132 144 970 134528
132	75020 199 869 19304 0 0 13 133 144 1829 257491
133	75219 229 931 19384 0 0 15 134 144 2121 300071
134	75448 169 1218 19016 0 0 11 135 144 1565 222727
135	75617 151 1412 13608 0 0 10 136 143 1419 201409
136	75768 137 1418 13632 0 0 9 137 143 1271 179535
137	75905 213 1420 13664 0 0 14 138 143 1969 276987
138	76118 122 1428 14848 0 0 8 139 143 1127 158789
139	76240 30 2344 8328 0 0 2 140 143 283 40049

