version 3
run General-280-20250904-14:13:19-15669
attr configname General
attr datetime 20250904-14:13:19
attr datetimef 20250904-141319
attr experiment General
attr inifile omnetpp.ini
attr iterationvars ""
attr iterationvarsd ""
attr iterationvarsf ""
attr measurement ""
attr network TaxiNetwork
attr processid 15669
attr repetition 280
attr replication #280
attr resultdir results
attr runnumber 280
attr seedset 280
config network TaxiNetwork
config seed-set 280
config num-rngs 1
config sim-time-limit 10s
config repeat 500
config *.numWalkers 1
config *.enableDuplication true
config *.rc 700
config **.node[0].xCor 2933
config **.node[0].yCor 2747
config **.node[1].xCor 2919
config **.node[1].yCor 2817
config **.node[2].xCor 2910
config **.node[2].yCor 2861
config **.node[3].xCor 2429
config **.node[3].yCor 2851
config **.node[4].xCor 2908
config **.node[4].yCor 2714
config **.node[5].xCor 2606
config **.node[5].yCor 2722
config **.node[6].xCor 2575
config **.node[6].yCor 2753
config **.node[7].xCor 2654
config **.node[7].yCor 2513
config **.node[8].xCor 2773
config **.node[8].yCor 2580
config **.node[9].xCor 3043
config **.node[9].yCor 2780
config **.node[10].xCor 3020
config **.node[10].yCor 2813
config **.node[11].xCor 2599
config **.node[11].yCor 2300
config **.node[12].xCor 2917
config **.node[12].yCor 2698
config **.node[13].xCor 2625
config **.node[13].yCor 2641
config **.node[14].xCor 2604
config **.node[14].yCor 2790
config **.node[15].xCor 2786
config **.node[15].yCor 3082
config **.node[16].xCor 2603
config **.node[16].yCor 2802
config **.node[17].xCor 2637
config **.node[17].yCor 2869
config **.node[18].xCor 2675
config **.node[18].yCor 2955
config **.node[19].xCor 2845
config **.node[19].yCor 2937
config **.node[20].xCor 2860
config **.node[20].yCor 2888
config **.node[21].xCor 2843
config **.node[21].yCor 4158
config **.node[22].xCor 2852
config **.node[22].yCor 4017
config **.node[23].xCor 2892
config **.node[23].yCor 4961
config **.node[24].xCor 2313
config **.node[24].yCor 3993
config **.node[25].xCor 2891
config **.node[25].yCor 4959
config **.node[26].xCor 2370
config **.node[26].yCor 4050
config **.node[27].xCor 2788
config **.node[27].yCor 3958
config **.node[28].xCor 2819
config **.node[28].yCor 4428
config **.node[29].xCor 2790
config **.node[29].yCor 3761
config **.node[30].xCor 2809
config **.node[30].yCor 2908
config **.node[31].xCor 2919
config **.node[31].yCor 3575
config **.node[32].xCor 2946
config **.node[32].yCor 3466
config **.node[33].xCor 2911
config **.node[33].yCor 3453
config **.node[34].xCor 2370
config **.node[34].yCor 3656
config **.node[35].xCor 2438
config **.node[35].yCor 3738
config **.node[36].xCor 2737
config **.node[36].yCor 3570
config **.node[37].xCor 2921
config **.node[37].yCor 3698
config **.node[38].xCor 2907
config **.node[38].yCor 5197
config **.node[39].xCor 2860
config **.node[39].yCor 3852
config **.node[40].xCor 2927
config **.node[40].yCor 3684
config **.node[41].xCor 3023
config **.node[41].yCor 5313
config **.node[42].xCor 3220
config **.node[42].yCor 5811
config **.node[43].xCor 3432
config **.node[43].yCor 5715
config **.node[44].xCor 2754
config **.node[44].yCor 2463
config **.node[45].xCor 2646
config **.node[45].yCor 2673
config **.node[46].xCor 3051
config **.node[46].yCor 2792
config **.node[47].xCor 1666
config **.node[47].yCor 3697
config **.node[48].xCor 1662
config **.node[48].yCor 3694
config **.node[49].xCor 1664
config **.node[49].yCor 3667
config **.node[50].xCor 1660
config **.node[50].yCor 3664
config **.node[51].xCor 1710
config **.node[51].yCor 3573
config **.node[52].xCor 2082
config **.node[52].yCor 2650
config **.node[53].xCor 2086
config **.node[53].yCor 2657
config **.node[54].xCor 2257
config **.node[54].yCor 3232
config **.node[55].xCor 2258
config **.node[55].yCor 3225
config **.node[56].xCor 1926
config **.node[56].yCor 2570
config **.node[57].xCor 1926
config **.node[57].yCor 2576
config **.node[58].xCor 2104
config **.node[58].yCor 1758
config **.node[59].xCor 1957
config **.node[59].yCor 1826
config **.node[60].xCor 3473
config **.node[60].yCor 1523
config **.node[61].xCor 3335
config **.node[61].yCor 1726
config **.node[62].xCor 3478
config **.node[62].yCor 1517
config **.node[63].xCor 3386
config **.node[63].yCor 2119
config **.node[64].xCor 3474
config **.node[64].yCor 1762
config **.node[65].xCor 3797
config **.node[65].yCor 2099
config **.node[66].xCor 3642
config **.node[66].yCor 2136
config **.node[67].xCor 3481
config **.node[67].yCor 2334
config **.node[68].xCor 3088
config **.node[68].yCor 1505
config **.node[69].xCor 3037
config **.node[69].yCor 1693
config **.node[70].xCor 3026
config **.node[70].yCor 1700
config **.node[71].xCor 3019
config **.node[71].yCor 669
config **.node[72].xCor 3513
config **.node[72].yCor 1358
config **.node[73].xCor 3545
config **.node[73].yCor 1230
config **.node[74].xCor 4228
config **.node[74].yCor 4220
config **.node[75].xCor 3379
config **.node[75].yCor 1207
config **.node[76].xCor 3596
config **.node[76].yCor 963
config **.node[77].xCor 3637
config **.node[77].yCor 1188
config **.node[78].xCor 3759
config **.node[78].yCor 1030
config **.node[79].xCor 2918
config **.node[79].yCor 1455
config **.node[80].xCor 2711
config **.node[80].yCor 1297
config **.node[81].xCor 439
config **.node[81].yCor 1623
config **.node[82].xCor 2857
config **.node[82].yCor 3581
config **.node[83].xCor 2858
config **.node[83].yCor 3584
config **.node[84].xCor 2999
config **.node[84].yCor 2636
config **.node[85].xCor 2905
config **.node[85].yCor 2778
config **.node[86].xCor 2653
config **.node[86].yCor 2845
config **.node[87].xCor 2864
config **.node[87].yCor 2836
config **.node[88].xCor 2426
config **.node[88].yCor 2892
config **.node[89].xCor 2964
config **.node[89].yCor 2804
config **.node[90].xCor 2586
config **.node[90].yCor 3135
config **.node[91].xCor 2864
config **.node[91].yCor 2980
config **.node[92].xCor 2527
config **.node[92].yCor 3219
config **.node[93].xCor 2863
config **.node[93].yCor 3142
config **.node[94].xCor 2485
config **.node[94].yCor 3269
config **.node[95].xCor 2653
config **.node[95].yCor 1065
config **.node[96].xCor 4062
config **.node[96].yCor 400
config **.node[97].xCor 5762
config **.node[97].yCor 3023
config **.node[98].xCor 1414
config **.node[98].yCor 3461
config **.node[99].xCor 2911
config **.node[99].yCor 1737
config **.node[100].xCor 2595
config **.node[100].yCor 2299
config **.node[101].xCor 2702
config **.node[101].yCor 3419
config **.node[102].xCor 2813
config **.node[102].yCor 3307
config **.node[103].xCor 2638
config **.node[103].yCor 2258
config **.node[104].xCor 2590
config **.node[104].yCor 3125
config **.node[105].xCor 1856
config **.node[105].yCor 2990
config **.node[106].xCor 1894
config **.node[106].yCor 2239
config **.node[107].xCor 383
config **.node[107].yCor 1251
config **.node[108].xCor 3447
config **.node[108].yCor 5489
config **.node[109].xCor 3450
config **.node[109].yCor 5697
config **.node[110].xCor 2719
config **.node[110].yCor 1920
config **.node[111].xCor 2085
config **.node[111].yCor 2389
config **.node[112].xCor 1910
config **.node[112].yCor 2548
config **.node[113].xCor 2069
config **.node[113].yCor 2050
config **.node[114].xCor 2184
config **.node[114].yCor 2209
config **.node[115].xCor 2278
config **.node[115].yCor 2390
config **.node[116].xCor 2249
config **.node[116].yCor 2299
config **.node[117].xCor 2356
config **.node[117].yCor 2303
config **.node[118].xCor 2192
config **.node[118].yCor 2475
config **.node[119].xCor 1720
config **.node[119].yCor 2911
config **.node[120].xCor 2400
config **.node[120].yCor 2887
config **.node[121].xCor 3344
config **.node[121].yCor 1890
config **.node[122].xCor 3136
config **.node[122].yCor 2418
config **.node[123].xCor 3243
config **.node[123].yCor 2525
config **.node[124].xCor 2396
config **.node[124].yCor 1267
config **.node[125].xCor 467
config **.node[125].yCor 1875
config **.node[126].xCor 3506
config **.node[126].yCor 1221
config **.node[127].xCor 1034
config **.node[127].yCor 1474
config **.node[128].xCor 2908
config **.node[128].yCor 1784
config **.node[129].xCor 2876
config **.node[129].yCor 1761
config **.node[130].xCor 2849
config **.node[130].yCor 1795
config **.node[131].xCor 3029
config **.node[131].yCor 1859
config **.node[132].xCor 2924
config **.node[132].yCor 1848
config **.node[133].xCor 3493
config **.node[133].yCor 1559
config **.node[134].xCor 2760
config **.node[134].yCor 1761
config **.node[135].xCor 1644
config **.node[135].yCor 3755
config **.node[136].xCor 1463
config **.node[136].yCor 3432
config **.node[137].xCor 2595
config **.node[137].yCor 2849
config **.node[138].xCor 2581
config **.node[138].yCor 2867
config **.node[139].xCor 2524
config **.node[139].yCor 2911
config **.node[140].xCor 2570
config **.node[140].yCor 2924
config **.node[141].xCor 2676
config **.node[141].yCor 2890
config **.node[142].xCor 2666
config **.node[142].yCor 2876
config **.node[143].xCor 3735
config **.node[143].yCor 1726
config **.node[144].xCor 1637
config **.node[144].yCor 3438

vector 0 TaxiNetwork.node[104] visitedPerTimestep ETV
vector 1 TaxiNetwork.node[34] visitedPerTimestep ETV
vector 2 TaxiNetwork.node[27] visitedPerTimestep ETV
vector 3 TaxiNetwork.node[21] visitedPerTimestep ETV
vector 4 TaxiNetwork.node[39] visitedPerTimestep ETV
vector 5 TaxiNetwork.node[31] visitedPerTimestep ETV
vector 6 TaxiNetwork.node[91] visitedPerTimestep ETV
vector 7 TaxiNetwork.node[44] visitedPerTimestep ETV
vector 8 TaxiNetwork.node[120] visitedPerTimestep ETV
vector 9 TaxiNetwork.node[45] visitedPerTimestep ETV
vector 10 TaxiNetwork.node[103] visitedPerTimestep ETV
vector 11 TaxiNetwork.node[123] visitedPerTimestep ETV
vector 12 TaxiNetwork.node[20] visitedPerTimestep ETV
vector 13 TaxiNetwork.node[11] visitedPerTimestep ETV
vector 14 TaxiNetwork.node[30] visitedPerTimestep ETV
vector 15 TaxiNetwork.node[101] visitedPerTimestep ETV
vector 16 TaxiNetwork.node[87] visitedPerTimestep ETV
vector 17 TaxiNetwork.node[122] visitedPerTimestep ETV
vector 18 TaxiNetwork.node[128] visitedPerTimestep ETV
vector 19 TaxiNetwork.node[129] visitedPerTimestep ETV
vector 20 TaxiNetwork.node[99] visitedPerTimestep ETV
vector 21 TaxiNetwork.node[61] visitedPerTimestep ETV
vector 22 TaxiNetwork.node[62] visitedPerTimestep ETV
vector 23 TaxiNetwork.node[77] visitedPerTimestep ETV
vector 24 TaxiNetwork.node[64] visitedPerTimestep ETV
vector 25 TaxiNetwork.node[60] visitedPerTimestep ETV
vector 26 TaxiNetwork.node[69] visitedPerTimestep ETV
vector 27 TaxiNetwork.node[126] visitedPerTimestep ETV
vector 28 TaxiNetwork.node[121] visitedPerTimestep ETV
vector 29 TaxiNetwork.node[133] visitedPerTimestep ETV
vector 30 TaxiNetwork.node[75] visitedPerTimestep ETV
vector 31 TaxiNetwork.node[100] visitedPerTimestep ETV
vector 32 TaxiNetwork.node[9] visitedPerTimestep ETV
vector 33 TaxiNetwork.node[19] visitedPerTimestep ETV
vector 34 TaxiNetwork.node[32] visitedPerTimestep ETV
vector 35 TaxiNetwork.node[33] visitedPerTimestep ETV
vector 36 TaxiNetwork.node[7] visitedPerTimestep ETV
vector 37 TaxiNetwork.node[4] visitedPerTimestep ETV
vector 38 TaxiNetwork.node[12] visitedPerTimestep ETV
vector 39 TaxiNetwork.node[1] visitedPerTimestep ETV
vector 40 TaxiNetwork.node[114] visitedPerTimestep ETV
vector 41 TaxiNetwork.node[59] visitedPerTimestep ETV
vector 42 TaxiNetwork.node[116] visitedPerTimestep ETV
vector 43 TaxiNetwork.node[8] visitedPerTimestep ETV
vector 44 TaxiNetwork.node[84] visitedPerTimestep ETV
vector 45 TaxiNetwork.node[3] visitedPerTimestep ETV
vector 46 TaxiNetwork.node[6] visitedPerTimestep ETV
vector 47 TaxiNetwork.node[52] visitedPerTimestep ETV
vector 48 TaxiNetwork.node[2] visitedPerTimestep ETV
vector 49 TaxiNetwork.node[29] visitedPerTimestep ETV
vector 50 TaxiNetwork.node[15] visitedPerTimestep ETV
vector 51 TaxiNetwork.node[93] visitedPerTimestep ETV
vector 52 TaxiNetwork.node[137] visitedPerTimestep ETV
vector 53 TaxiNetwork.node[13] visitedPerTimestep ETV
vector 54 TaxiNetwork.node[118] visitedPerTimestep ETV
vector 55 TaxiNetwork.node[16] visitedPerTimestep ETV
vector 56 TaxiNetwork.node[46] visitedPerTimestep ETV
vector 57 TaxiNetwork.node[141] visitedPerTimestep ETV
vector 58 TaxiNetwork.node[0] visitedPerTimestep ETV
vector 59 TaxiNetwork.node[140] visitedPerTimestep ETV
vector 60 TaxiNetwork.node[88] visitedPerTimestep ETV
vector 61 TaxiNetwork.node[37] visitedPerTimestep ETV
vector 62 TaxiNetwork.node[139] visitedPerTimestep ETV
vector 63 TaxiNetwork.node[82] visitedPerTimestep ETV
vector 64 TaxiNetwork.node[83] visitedPerTimestep ETV
vector 65 TaxiNetwork.node[55] visitedPerTimestep ETV
vector 66 TaxiNetwork.node[105] visitedPerTimestep ETV
vector 67 TaxiNetwork.node[136] visitedPerTimestep ETV
vector 68 TaxiNetwork.node[47] visitedPerTimestep ETV
vector 69 TaxiNetwork.node[98] visitedPerTimestep ETV
vector 70 TaxiNetwork.node[94] visitedPerTimestep ETV
vector 71 TaxiNetwork.node[18] visitedPerTimestep ETV
vector 72 TaxiNetwork.node[142] visitedPerTimestep ETV
vector 73 TaxiNetwork.node[102] visitedPerTimestep ETV
vector 74 TaxiNetwork.node[138] visitedPerTimestep ETV
vector 75 TaxiNetwork.node[56] visitedPerTimestep ETV
vector 76 TaxiNetwork.node[35] visitedPerTimestep ETV
vector 77 TaxiNetwork.node[26] visitedPerTimestep ETV
vector 78 TaxiNetwork.node[24] visitedPerTimestep ETV
vector 79 TaxiNetwork.node[36] visitedPerTimestep ETV
vector 80 TaxiNetwork.node[54] visitedPerTimestep ETV
vector 81 TaxiNetwork.node[40] visitedPerTimestep ETV
vector 82 TaxiNetwork.node[92] visitedPerTimestep ETV
vector 83 TaxiNetwork.node[89] visitedPerTimestep ETV
vector 84 TaxiNetwork.node[111] visitedPerTimestep ETV
vector 85 TaxiNetwork.node[90] visitedPerTimestep ETV
vector 86 TaxiNetwork.node[53] visitedPerTimestep ETV
vector 87 TaxiNetwork.node[5] visitedPerTimestep ETV
vector 88 TaxiNetwork.node[66] visitedPerTimestep ETV
vector 89 TaxiNetwork.node[85] visitedPerTimestep ETV
vector 90 TaxiNetwork.node[115] visitedPerTimestep ETV
vector 91 TaxiNetwork.node[10] visitedPerTimestep ETV
vector 92 TaxiNetwork.node[106] visitedPerTimestep ETV
vector 93 TaxiNetwork.node[57] visitedPerTimestep ETV
vector 94 TaxiNetwork.node[14] visitedPerTimestep ETV
vector 95 TaxiNetwork.node[132] visitedPerTimestep ETV
vector 96 TaxiNetwork.node[86] visitedPerTimestep ETV
vector 97 TaxiNetwork.node[22] visitedPerTimestep ETV
vector 98 TaxiNetwork.node[117] visitedPerTimestep ETV
vector 99 TaxiNetwork.node[113] visitedPerTimestep ETV
vector 100 TaxiNetwork.node[17] visitedPerTimestep ETV
vector 101 TaxiNetwork.node[112] visitedPerTimestep ETV
vector 102 TaxiNetwork.node[78] visitedPerTimestep ETV
vector 103 TaxiNetwork.node[130] visitedPerTimestep ETV
vector 104 TaxiNetwork.node[65] visitedPerTimestep ETV
vector 105 TaxiNetwork.node[67] visitedPerTimestep ETV
vector 106 TaxiNetwork.node[73] visitedPerTimestep ETV
vector 107 TaxiNetwork.node[134] visitedPerTimestep ETV
vector 108 TaxiNetwork.node[110] visitedPerTimestep ETV
vector 109 TaxiNetwork.node[131] visitedPerTimestep ETV
vector 110 TaxiNetwork.node[74] visitedPerTimestep ETV
vector 111 TaxiNetwork.node[109] visitedPerTimestep ETV
vector 112 TaxiNetwork.node[41] visitedPerTimestep ETV
vector 113 TaxiNetwork.node[23] visitedPerTimestep ETV
vector 114 TaxiNetwork.node[38] visitedPerTimestep ETV
vector 115 TaxiNetwork.node[43] visitedPerTimestep ETV
vector 116 TaxiNetwork.node[42] visitedPerTimestep ETV
vector 117 TaxiNetwork.node[28] visitedPerTimestep ETV
vector 118 TaxiNetwork.node[72] visitedPerTimestep ETV
vector 119 TaxiNetwork.node[119] visitedPerTimestep ETV
vector 120 TaxiNetwork.node[51] visitedPerTimestep ETV
vector 121 TaxiNetwork.node[144] visitedPerTimestep ETV
vector 122 TaxiNetwork.node[49] visitedPerTimestep ETV
vector 123 TaxiNetwork.node[48] visitedPerTimestep ETV
vector 124 TaxiNetwork.node[135] visitedPerTimestep ETV
vector 125 TaxiNetwork.node[58] visitedPerTimestep ETV
vector 126 TaxiNetwork.node[127] visitedPerTimestep ETV
vector 127 TaxiNetwork.node[80] visitedPerTimestep ETV
vector 128 TaxiNetwork.node[71] visitedPerTimestep ETV
vector 129 TaxiNetwork.node[95] visitedPerTimestep ETV
vector 130 TaxiNetwork.node[68] visitedPerTimestep ETV
vector 131 TaxiNetwork.node[79] visitedPerTimestep ETV
vector 132 TaxiNetwork.node[124] visitedPerTimestep ETV
vector 133 TaxiNetwork.node[76] visitedPerTimestep ETV
vector 134 TaxiNetwork.node[63] visitedPerTimestep ETV
vector 135 TaxiNetwork.node[70] visitedPerTimestep ETV
vector 136 TaxiNetwork.node[143] visitedPerTimestep ETV
vector 137 TaxiNetwork.node[50] visitedPerTimestep ETV
vector 138 TaxiNetwork.node[108] visitedPerTimestep ETV
vector 139 TaxiNetwork.node[25] visitedPerTimestep ETV
vector 140 TaxiNetwork.node[107] visitedPerTimestep ETV
0	1	0	1
0	44	0	36
0	67	0	48
0	92	0	61
0	124	0	76
0	151	0	84
0	170	0	88
0	227	0	92
0	239	0	94
0	255	0	94
0	265	0	94
0	268	0	95
0	386	0	99
0	400	0	99
0	415	0	100
0	491	0	101
0	536	0	102
0	605	0	109
0	616	0	109
0	926	0	124
0	1006	0	124
0	1024	0	124
0	1116	0	126
0	1216	0	127
0	1344	0	127
0	1372	0	127
0	1430	0	127
0	1706	0	128
0	1746	0	128
0	1976	0	129
0	2048	0	130
0	2196	0	135
0	2266	0	135
0	2448	0	138
0	2512	0	138
0	2528	0	138
0	2572	0	138
0	2812	0	138
0	2980	0	139
0	3644	0	141
0	4340	0	141
0	4464	0	141
0	4612	0	141
0	4916	0	141
0	5136	0	143
0	6064	0	143
0	7104	0	144
0	7408	0	144
0	8240	0	144
0	8280	0	144
0	8320	0	144
0	8568	0	144
0	8792	0	144
0	9160	0	144
1	2	0	2
1	435	0	100
1	525	0	102
1	670	0	110
1	1250	0	127
1	1356	0	127
1	1584	0	128
1	2276	0	135
1	2434	0	137
1	2848	0	138
1	2930	0	139
1	2940	0	139
1	2960	0	139
1	4440	0	141
1	4924	0	141
1	7952	0	144
1	8448	0	144
2	3	0	3
2	701	0	118
2	1094	0	124
2	1348	0	127
2	1636	0	128
2	1654	0	128
2	1888	0	129
2	2270	0	135
2	2278	0	135
2	2454	0	138
2	6448	0	144
2	6976	0	144
2	7544	0	144
2	9080	0	144
3	4	0	4
3	667	0	110
3	669	0	110
3	774	0	119
3	952	0	124
3	1082	0	124
3	1148	0	127
3	1630	0	128
3	1640	0	128
3	2946	0	139
3	2954	0	139
3	4888	0	141
4	5	0	5
4	94	0	61
4	341	0	98
4	1418	0	127
4	1632	0	128
4	1720	0	128
4	1886	0	129
4	2964	0	139
4	2990	0	139
4	4224	0	141
4	4644	0	141
4	5012	0	142
4	6972	0	144
4	6996	0	144
5	6	0	6
5	240	0	94
5	436	0	100
5	504	0	102
5	560	0	102
5	671	0	110
5	676	0	110
5	775	0	119
5	1310	0	127
5	1406	0	127
5	1648	0	128
5	1788	0	128
5	2452	0	138
5	2972	0	139
5	3372	0	139
5	4400	0	141
5	4424	0	141
5	4436	0	141
5	4616	0	141
5	4792	0	141
5	4852	0	141
5	4920	0	141
5	7120	0	144
5	7968	0	144
6	7	0	7
6	136	0	80
6	225	0	92
6	278	0	95
6	390	0	99
6	437	0	100
6	466	0	101
6	533	0	102
6	568	0	102
6	677	0	110
6	683	0	110
6	687	0	110
6	762	0	119
6	856	0	124
6	875	0	124
6	877	0	124
6	970	0	124
6	1196	0	127
6	1224	0	127
6	1246	0	127
6	1306	0	127
6	1466	0	127
6	1496	0	127
6	2300	0	135
6	2466	0	138
6	2836	0	138
6	2840	0	138
6	2880	0	138
6	3400	0	139
6	3904	0	141
6	4052	0	141
6	4152	0	141
6	4216	0	141
6	4748	0	141
6	4796	0	141
6	5164	0	143
6	5324	0	143
6	5972	0	143
6	6052	0	143
6	6136	0	143
6	6272	0	143
6	6360	0	144
6	6480	0	144
6	6616	0	144
6	7688	0	144
6	7976	0	144
6	8232	0	144
6	8296	0	144
6	8312	0	144
7	8	0	8
7	89	0	59
7	344	0	98
7	359	0	98
7	513	0	102
7	724	0	118
7	738	0	119
7	741	0	119
7	901	0	124
7	1034	0	124
7	1048	0	124
7	1696	0	128
7	1966	0	129
7	2042	0	130
7	2306	0	135
7	2324	0	135
7	2346	0	135
7	2366	0	135
7	2372	0	135
7	2418	0	136
7	3468	0	139
7	3660	0	141
7	3948	0	141
7	4248	0	141
7	4296	0	141
7	4756	0	141
7	5056	0	143
7	5104	0	143
7	5280	0	143
7	5596	0	143
7	5836	0	143
7	6088	0	143
7	6156	0	143
7	6324	0	143
7	6348	0	144
7	6412	0	144
7	6532	0	144
7	7576	0	144
7	7792	0	144
7	8416	0	144
8	9	0	9
8	14	0	13
8	49	0	39
8	153	0	84
8	302	0	96
8	307	0	96
8	368	0	99
8	508	0	102
8	662	0	110
8	713	0	118
8	726	0	118
8	784	0	119
8	788	0	119
8	838	0	124
8	862	0	124
8	939	0	124
8	1032	0	124
8	1182	0	127
8	1186	0	127
8	1442	0	127
8	1528	0	127
8	1538	0	127
8	1754	0	128
8	1822	0	128
8	1934	0	129
8	2090	0	130
8	2384	0	135
8	2420	0	136
8	2508	0	138
8	2918	0	139
8	3240	0	139
8	3272	0	139
8	3628	0	141
8	3708	0	141
8	3940	0	141
8	3988	0	141
8	4028	0	141
8	4064	0	141
8	4156	0	141
8	4300	0	141
8	4724	0	141
8	5024	0	142
8	5080	0	143
8	5204	0	143
8	5616	0	143
8	5876	0	143
8	6244	0	143
8	6264	0	143
8	6284	0	143
8	6292	0	143
8	6424	0	144
8	6612	0	144
8	7344	0	144
8	8168	0	144
8	8216	0	144
8	8400	0	144
8	8864	0	144
8	9224	0	144
9	10	0	10
9	52	0	40
9	61	0	48
9	220	0	92
9	273	0	95
9	283	0	95
9	317	0	97
9	319	0	97
9	445	0	100
9	520	0	102
9	648	0	110
9	682	0	110
9	725	0	118
9	834	0	124
9	887	0	124
9	923	0	124
9	943	0	124
9	978	0	124
9	1058	0	124
9	1194	0	127
9	1242	0	127
9	1274	0	127
9	1282	0	127
9	1744	0	128
9	2246	0	135
9	2340	0	135
9	2470	0	138
9	2520	0	138
9	2524	0	138
9	2558	0	138
9	2770	0	138
9	2774	0	138
9	3260	0	139
9	4832	0	141
9	4940	0	141
9	5168	0	143
9	5348	0	143
9	5832	0	143
9	6860	0	144
9	8112	0	144
9	8776	0	144
10	11	0	11
10	65	0	48
10	284	0	95
10	322	0	97
10	409	0	100
10	454	0	100
10	637	0	109
10	715	0	118
10	817	0	124
10	968	0	124
10	1168	0	127
10	1192	0	127
10	1292	0	127
10	1438	0	127
10	1610	0	128
10	1758	0	128
10	1812	0	128
10	2318	0	135
10	2344	0	135
10	2588	0	138
10	2666	0	138
10	2804	0	138
10	3364	0	139
10	3608	0	141
10	3764	0	141
10	4072	0	141
10	4144	0	141
10	4348	0	141
10	4944	0	141
10	5060	0	143
10	5220	0	143
10	6040	0	143
10	7448	0	144
11	12	0	12
11	179	0	89
11	411	0	100
11	429	0	100
11	501	0	102
11	647	0	110
11	744	0	119
11	1396	0	127
11	1480	0	127
11	2094	0	130
11	2332	0	135
11	2424	0	136
11	2634	0	138
11	2788	0	138
11	2828	0	138
11	2832	0	138
11	2858	0	138
11	3256	0	139
11	4004	0	141
11	5244	0	143
11	5524	0	143
11	6476	0	144
11	6632	0	144
11	8512	0	144
12	13	0	13
12	199	0	89
12	263	0	94
12	289	0	96
12	325	0	97
12	449	0	100
12	456	0	100
12	543	0	102
12	712	0	118
12	747	0	119
12	781	0	119
12	787	0	119
12	836	0	124
12	899	0	124
12	934	0	124
12	963	0	124
12	972	0	124
12	1228	0	127
12	1286	0	127
12	1304	0	127
12	1330	0	127
12	1464	0	127
12	1626	0	128
12	1676	0	128
12	1710	0	128
12	2398	0	135
12	2410	0	136
12	2542	0	138
12	2586	0	138
12	2794	0	138
12	2810	0	138
12	2826	0	138
12	3368	0	139
12	3412	0	139
12	3592	0	140
12	4160	0	141
12	4408	0	141
12	4556	0	141
12	4580	0	141
12	4636	0	141
12	5272	0	143
12	5896	0	143
12	5920	0	143
12	6256	0	143
12	6300	0	143
12	6492	0	144
12	7416	0	144
12	7480	0	144
12	8424	0	144
12	8832	0	144
13	15	0	14
13	22	0	20
13	82	0	57
13	189	0	89
13	197	0	89
13	419	0	100
13	428	0	100
13	468	0	101
13	571	0	102
13	592	0	106
13	624	0	109
13	717	0	118
13	755	0	119
13	766	0	119
13	816	0	124
13	956	0	124
13	1038	0	124
13	1104	0	125
13	1208	0	127
13	1300	0	127
13	1476	0	127
13	1526	0	127
13	1776	0	128
13	1838	0	128
13	1970	0	129
13	2204	0	135
13	2240	0	135
13	2308	0	135
13	2738	0	138
13	3236	0	139
13	3252	0	139
13	3436	0	139
13	3452	0	139
13	3568	0	139
13	4080	0	141
13	4504	0	141
13	4516	0	141
13	5040	0	142
13	5388	0	143
13	6168	0	143
13	6504	0	144
13	6596	0	144
13	6868	0	144
13	6936	0	144
13	8120	0	144
13	8904	0	144
13	8968	0	144
14	16	0	15
14	66	0	48
14	85	0	58
14	184	0	89
14	230	0	92
14	297	0	96
14	391	0	99
14	395	0	99
14	425	0	100
14	541	0	102
14	612	0	109
14	807	0	124
14	823	0	124
14	829	0	124
14	1144	0	127
14	1324	0	127
14	1428	0	127
14	1450	0	127
14	1784	0	128
14	1804	0	128
14	1974	0	129
14	2056	0	130
14	2078	0	130
14	2100	0	130
14	2314	0	135
14	2396	0	135
14	2540	0	138
14	2996	0	139
14	3616	0	141
14	4208	0	141
14	4600	0	141
14	5064	0	143
14	5208	0	143
14	5380	0	143
14	6068	0	143
14	6440	0	144
14	9176	0	144
15	17	0	16
15	69	0	49
15	126	0	76
15	145	0	83
15	204	0	90
15	251	0	94
15	292	0	96
15	299	0	96
15	421	0	100
15	433	0	100
15	462	0	101
15	488	0	101
15	527	0	102
15	665	0	110
15	750	0	119
15	1078	0	124
15	1184	0	127
15	1252	0	127
15	1340	0	127
15	1368	0	127
15	1722	0	128
15	1826	0	128
15	1830	0	128
15	1940	0	129
15	1978	0	129
15	2002	0	129
15	2008	0	129
15	2106	0	130
15	2194	0	135
15	2258	0	135
15	2744	0	138
15	2748	0	138
15	3528	0	139
15	3752	0	141
15	4188	0	141
15	4284	0	141
15	4308	0	141
15	4620	0	141
15	4848	0	141
15	4896	0	141
15	4980	0	141
15	5236	0	143
15	6956	0	144
15	7504	0	144
15	7624	0	144
15	8008	0	144
15	8496	0	144
15	9128	0	144
15	9168	0	144
16	18	0	17
16	62	0	48
16	80	0	56
16	173	0	88
16	277	0	95
16	330	0	97
16	353	0	98
16	380	0	99
16	509	0	102
16	514	0	102
16	585	0	106
16	812	0	124
16	911	0	124
16	1016	0	124
16	1026	0	124
16	1370	0	127
16	1384	0	127
16	1426	0	127
16	1458	0	127
16	1482	0	127
16	1510	0	127
16	1532	0	127
16	1734	0	128
16	1742	0	128
16	1902	0	129
16	1912	0	129
16	2376	0	135
16	2388	0	135
16	2392	0	135
16	2426	0	136
16	2538	0	138
16	2574	0	138
16	2664	0	138
16	2824	0	138
16	3428	0	139
16	3588	0	139
16	4172	0	141
16	4816	0	141
16	5120	0	143
16	5228	0	143
16	6396	0	144
16	7088	0	144
16	7328	0	144
16	8224	0	144
16	8472	0	144
17	19	0	18
17	174	0	88
17	177	0	88
17	272	0	95
17	450	0	100
17	602	0	109
17	704	0	118
17	728	0	118
17	815	0	124
17	912	0	124
17	1236	0	127
17	1298	0	127
17	1392	0	127
17	1512	0	127
17	2184	0	135
17	2310	0	135
17	2474	0	138
17	2582	0	138
17	2630	0	138
17	2658	0	138
17	3556	0	139
17	3928	0	141
17	4096	0	141
17	5276	0	143
17	5352	0	143
17	6516	0	144
17	6588	0	144
17	6600	0	144
17	6620	0	144
17	6768	0	144
17	8640	0	144
18	20	0	19
18	38	0	31
18	286	0	95
18	1166	0	127
18	2364	0	135
18	2670	0	138
18	3360	0	139
18	3820	0	141
18	6716	0	144
18	7816	0	144
18	7856	0	144
18	8720	0	144
19	21	0	20
19	598	0	107
19	640	0	110
19	642	0	110
19	2210	0	135
19	2214	0	135
19	2358	0	135
19	2590	0	138
19	2782	0	138
19	3016	0	139
19	3060	0	139
19	3072	0	139
19	4132	0	141
19	5404	0	143
19	6692	0	144
19	8688	0	144
20	23	0	21
20	736	0	119
20	2238	0	135
20	2606	0	138
20	2610	0	138
20	2680	0	138
20	2736	0	138
20	3088	0	139
20	3788	0	141
20	4104	0	141
20	6552	0	144
20	6700	0	144
20	8680	0	144
21	24	0	22
21	27	0	24
21	37	0	31
21	595	0	106
21	597	0	107
21	639	0	110
21	2220	0	135
21	2356	0	135
21	2592	0	138
21	2696	0	138
21	2718	0	138
21	2734	0	138
21	3064	0	139
21	3792	0	141
21	5532	0	143
21	8600	0	144
22	25	0	23
22	577	0	103
22	2176	0	135
22	2236	0	135
22	3032	0	139
22	3124	0	139
22	4112	0	141
22	5408	0	143
22	5472	0	143
22	5544	0	143
22	5552	0	143
22	6724	0	144
22	7808	0	144
23	26	0	24
23	575	0	102
23	2170	0	135
23	2230	0	135
23	2720	0	138
23	3028	0	139
23	3036	0	139
23	3052	0	139
23	3136	0	139
23	3168	0	139
23	3836	0	141
23	5540	0	143
24	28	0	25
24	645	0	110
24	732	0	119
24	2612	0	138
24	2620	0	138
24	2626	0	138
24	2702	0	138
24	3020	0	139
24	3056	0	139
24	3164	0	139
24	3220	0	139
24	4136	0	141
24	6820	0	144
25	29	0	26
25	573	0	102
25	643	0	110
25	2172	0	135
25	2180	0	135
25	2226	0	135
25	2676	0	138
25	3024	0	139
25	3068	0	139
25	3084	0	139
25	3840	0	141
25	4128	0	141
25	5508	0	143
25	6704	0	144
25	6720	0	144
25	6832	0	144
26	30	0	27
26	285	0	95
26	734	0	119
26	2154	0	134
26	2216	0	135
26	2616	0	138
26	3180	0	139
26	3800	0	141
26	3808	0	141
26	3824	0	141
26	5432	0	143
26	5460	0	143
26	5580	0	143
26	6556	0	144
26	8616	0	144
27	31	0	28
27	34	0	30
27	2232	0	135
27	5468	0	143
27	6668	0	144
27	6736	0	144
28	32	0	29
28	35	0	30
28	601	0	109
28	2624	0	138
28	2678	0	138
28	2688	0	138
28	2694	0	138
28	2698	0	138
28	2710	0	138
28	2784	0	138
28	3148	0	139
28	3204	0	139
28	3804	0	141
28	4120	0	141
28	5436	0	143
28	5576	0	143
28	6636	0	144
28	6656	0	144
28	6744	0	144
28	8696	0	144
29	33	0	30
29	574	0	102
29	579	0	104
29	2222	0	135
29	2234	0	135
29	2604	0	138
29	2706	0	138
29	3008	0	139
29	3112	0	139
29	3128	0	139
29	3172	0	139
29	3828	0	141
29	3852	0	141
29	4108	0	141
29	5440	0	143
29	6824	0	144
30	36	0	31
30	733	0	119
30	2228	0	135
30	2622	0	138
30	2708	0	138
30	3144	0	139
31	39	0	32
31	46	0	37
31	84	0	58
31	86	0	58
31	172	0	88
31	188	0	89
31	288	0	96
31	320	0	97
31	371	0	99
31	418	0	100
31	430	0	100
31	611	0	109
31	641	0	110
31	737	0	119
31	839	0	124
31	900	0	124
31	1002	0	124
31	1162	0	127
31	1452	0	127
31	1944	0	129
31	1982	0	129
31	2136	0	130
31	2312	0	135
31	2380	0	135
31	2478	0	138
31	2482	0	138
31	2546	0	138
31	2780	0	138
31	2856	0	138
31	3288	0	139
31	3424	0	139
31	3704	0	141
31	3956	0	141
31	4100	0	141
31	4292	0	141
31	4768	0	141
31	5048	0	142
31	5376	0	143
31	5400	0	143
31	5620	0	143
31	5884	0	143
31	6112	0	143
31	6120	0	143
31	6180	0	143
31	6296	0	143
31	6372	0	144
31	6540	0	144
31	6756	0	144
31	7864	0	144
31	8480	0	144
31	8728	0	144
32	40	0	33
32	115	0	73
32	271	0	95
32	306	0	96
32	372	0	99
32	443	0	100
32	621	0	109
32	703	0	118
32	711	0	118
32	765	0	119
32	782	0	119
32	824	0	124
32	902	0	124
32	984	0	124
32	1040	0	124
32	1140	0	127
32	1202	0	127
32	1264	0	127
32	1314	0	127
32	1664	0	128
32	1688	0	128
32	1748	0	128
32	1858	0	129
32	2024	0	129
32	2118	0	130
32	2126	0	130
32	2252	0	135
32	2386	0	135
32	3724	0	141
32	3908	0	141
32	3984	0	141
32	4036	0	141
32	4548	0	141
32	4808	0	141
32	4828	0	141
32	5044	0	142
32	5292	0	143
32	6268	0	143
32	6404	0	144
32	6764	0	144
32	8272	0	144
33	41	0	34
33	88	0	59
33	249	0	94
33	331	0	97
33	384	0	99
33	444	0	100
33	589	0	106
33	835	0	124
33	846	0	124
33	853	0	124
33	873	0	124
33	904	0	124
33	954	0	124
33	1028	0	124
33	1070	0	124
33	1178	0	127
33	1336	0	127
33	1484	0	127
33	1606	0	128
33	1646	0	128
33	2026	0	129
33	2066	0	130
33	2072	0	130
33	2076	0	130
33	2298	0	135
33	2328	0	135
33	2472	0	138
33	2740	0	138
33	2768	0	138
33	2796	0	138
33	2818	0	138
33	2970	0	139
33	2998	0	139
33	4008	0	141
33	4328	0	141
33	4392	0	141
33	4584	0	141
33	4772	0	141
33	5108	0	143
33	5356	0	143
33	5928	0	143
33	6092	0	143
33	6216	0	143
33	6232	0	143
33	6356	0	144
33	7880	0	144
33	8528	0	144
33	9184	0	144
33	9232	0	144
34	42	0	35
34	254	0	94
34	315	0	97
34	393	0	99
34	561	0	102
34	615	0	109
34	678	0	110
34	883	0	124
34	903	0	124
34	951	0	124
34	1010	0	124
34	1098	0	124
34	1138	0	127
34	1142	0	127
34	1652	0	128
34	1918	0	129
34	1922	0	129
34	2052	0	130
34	2280	0	135
34	3376	0	139
34	4020	0	141
34	4232	0	141
34	4552	0	141
34	4592	0	141
34	4864	0	141
34	5188	0	143
34	5300	0	143
34	6392	0	144
34	6460	0	144
34	6964	0	144
34	7400	0	144
34	7616	0	144
34	7920	0	144
35	43	0	36
35	96	0	62
35	98	0	63
35	111	0	72
35	139	0	81
35	193	0	89
35	205	0	90
35	335	0	97
35	373	0	99
35	392	0	99
35	463	0	101
35	557	0	102
35	567	0	102
35	584	0	106
35	702	0	118
35	948	0	124
35	1076	0	124
35	1130	0	127
35	1420	0	127
35	1424	0	127
35	1498	0	127
35	1764	0	128
35	2054	0	130
35	2462	0	138
35	2496	0	138
35	3540	0	139
35	3652	0	141
35	4388	0	141
35	4524	0	141
35	4656	0	141
35	5016	0	142
35	6076	0	143
35	6316	0	143
35	6988	0	144
35	7320	0	144
35	8464	0	144
35	8944	0	144
36	45	0	37
36	309	0	96
36	324	0	97
36	360	0	98
36	423	0	100
36	617	0	109
36	628	0	109
36	652	0	110
36	708	0	118
36	727	0	118
36	770	0	119
36	874	0	124
36	989	0	124
36	1176	0	127
36	1230	0	127
36	1234	0	127
36	1520	0	127
36	1782	0	128
36	1908	0	129
36	1932	0	129
36	2060	0	130
36	2188	0	135
36	2548	0	138
36	3552	0	139
36	3640	0	141
36	4492	0	141
36	5852	0	143
36	5976	0	143
36	6096	0	143
36	6148	0	143
36	6892	0	144
36	7584	0	144
36	8752	0	144
37	47	0	38
37	50	0	39
37	63	0	48
37	180	0	89
37	187	0	89
37	226	0	92
37	323	0	97
37	364	0	99
37	416	0	100
37	424	0	100
37	439	0	100
37	460	0	101
37	500	0	102
37	510	0	102
37	512	0	102
37	570	0	102
37	591	0	106
37	593	0	106
37	777	0	119
37	809	0	124
37	848	0	124
37	920	0	124
37	1108	0	126
37	1332	0	127
37	1596	0	128
37	1686	0	128
37	1910	0	129
37	2110	0	130
37	2114	0	130
37	2532	0	138
37	2632	0	138
37	2792	0	138
37	3440	0	139
37	3448	0	139
37	3492	0	139
37	3572	0	139
37	3936	0	141
37	3980	0	141
37	4148	0	141
37	4336	0	141
37	4608	0	141
37	5316	0	143
37	5624	0	143
37	6056	0	143
37	6592	0	144
37	6604	0	144
37	6780	0	144
37	7456	0	144
37	7472	0	144
37	7904	0	144
38	48	0	39
38	218	0	91
38	354	0	98
38	410	0	100
38	412	0	100
38	451	0	100
38	537	0	102
38	706	0	118
38	716	0	118
38	857	0	124
38	946	0	124
38	1004	0	124
38	1064	0	124
38	1618	0	128
38	1690	0	128
38	1870	0	129
38	2526	0	138
38	2580	0	138
38	3600	0	141
38	3924	0	141
38	4044	0	141
38	4744	0	141
38	4760	0	141
38	4948	0	141
38	5116	0	143
38	5172	0	143
38	5180	0	143
38	5252	0	143
38	5364	0	143
38	6184	0	143
38	6472	0	144
38	6536	0	144
38	7704	0	144
38	8560	0	144
39	51	0	40
39	190	0	89
39	194	0	89
39	198	0	89
39	209	0	90
39	217	0	91
39	528	0	102
39	539	0	102
39	569	0	102
39	618	0	109
39	655	0	110
39	743	0	119
39	780	0	119
39	837	0	124
39	861	0	124
39	913	0	124
39	1102	0	124
39	1198	0	127
39	1212	0	127
39	1232	0	127
39	1448	0	127
39	1612	0	128
39	1680	0	128
39	1802	0	128
39	1836	0	128
39	2050	0	130
39	2084	0	130
39	2104	0	130
39	2186	0	135
39	2382	0	135
39	2772	0	138
39	2886	0	138
39	3328	0	139
39	3912	0	141
39	3976	0	141
39	4764	0	141
39	4800	0	141
39	4844	0	141
39	5248	0	143
39	5368	0	143
39	6124	0	143
39	6192	0	143
39	6488	0	144
39	7608	0	144
39	8912	0	144
39	8976	0	144
40	53	0	41
40	470	0	101
40	480	0	101
40	482	0	101
40	636	0	109
40	721	0	118
40	769	0	119
40	1436	0	127
40	2202	0	135
40	2244	0	135
40	2560	0	138
40	3872	0	141
40	5796	0	143
40	5804	0	143
40	6332	0	143
41	54	0	42
41	471	0	101
41	548	0	102
41	998	0	124
41	1172	0	127
41	2562	0	138
41	3688	0	141
41	5800	0	143
42	55	0	43
42	75	0	54
42	119	0	75
42	407	0	99
42	481	0	101
42	545	0	102
42	752	0	119
42	1240	0	127
42	1896	0	129
42	1996	0	129
42	2200	0	135
42	2338	0	135
42	3676	0	141
42	3760	0	141
42	4276	0	141
42	6500	0	144
42	6580	0	144
42	8096	0	144
42	8352	0	144
43	56	0	44
43	79	0	56
43	224	0	92
43	496	0	102
43	603	0	109
43	623	0	109
43	723	0	118
43	759	0	119
43	830	0	124
43	845	0	124
43	991	0	124
43	1206	0	127
43	1328	0	127
43	1456	0	127
43	1522	0	127
43	1708	0	128
43	1868	0	129
43	1898	0	129
43	2068	0	130
43	2352	0	135
43	3248	0	139
43	3264	0	139
43	3404	0	139
43	3932	0	141
43	4256	0	141
43	4412	0	141
43	5212	0	143
43	5956	0	143
43	6512	0	144
43	6896	0	144
43	7136	0	144
43	7424	0	144
43	7744	0	144
43	7872	0	144
43	7984	0	144
43	8080	0	144
44	57	0	45
44	171	0	88
44	321	0	97
44	709	0	118
44	814	0	124
44	819	0	124
44	909	0	124
44	969	0	124
44	982	0	124
44	1322	0	127
44	1620	0	128
44	1666	0	128
44	1732	0	128
44	2058	0	130
44	2082	0	130
44	2250	0	135
44	2416	0	136
44	2468	0	138
44	2642	0	138
44	2872	0	138
44	3480	0	139
44	4332	0	141
44	4344	0	141
44	4536	0	141
44	5068	0	143
44	5516	0	143
44	6044	0	143
44	6160	0	143
44	6200	0	143
44	6788	0	144
44	6808	0	144
45	58	0	46
45	117	0	74
45	167	0	88
45	196	0	89
45	305	0	96
45	326	0	97
45	376	0	99
45	604	0	109
45	779	0	119
45	897	0	124
45	922	0	124
45	990	0	124
45	1046	0	124
45	1112	0	126
45	1434	0	127
45	1536	0	127
45	1598	0	128
45	1906	0	129
45	2018	0	129
45	2022	0	129
45	2036	0	129
45	2302	0	135
45	2522	0	138
45	2566	0	138
45	2644	0	138
45	3892	0	141
45	4352	0	141
45	4568	0	141
45	4804	0	141
45	4956	0	141
45	5988	0	143
45	6164	0	143
45	6176	0	143
45	6340	0	143
45	6364	0	144
45	6400	0	144
45	6760	0	144
45	7040	0	144
45	7384	0	144
45	8136	0	144
45	8328	0	144
45	8408	0	144
45	8488	0	144
46	59	0	47
46	64	0	48
46	121	0	76
46	169	0	88
46	237	0	94
46	308	0	96
46	366	0	99
46	398	0	99
46	442	0	100
46	631	0	109
46	894	0	124
46	914	0	124
46	917	0	124
46	1106	0	126
46	1226	0	127
46	1272	0	127
46	1342	0	127
46	1374	0	127
46	1390	0	127
46	1470	0	127
46	1494	0	127
46	1864	0	129
46	1874	0	129
46	1992	0	129
46	2254	0	135
46	2412	0	136
46	2504	0	138
46	2510	0	138
46	2544	0	138
46	2876	0	138
46	3000	0	139
46	3268	0	139
46	3464	0	139
46	3668	0	141
46	3700	0	141
46	4192	0	141
46	4244	0	141
46	4692	0	141
46	4972	0	141
46	5360	0	143
46	6776	0	144
46	6804	0	144
46	7600	0	144
46	8024	0	144
46	8392	0	144
46	9000	0	144
47	60	0	48
47	157	0	85
47	164	0	88
47	213	0	91
47	221	0	92
47	234	0	92
47	274	0	95
47	478	0	101
47	492	0	101
47	494	0	102
47	518	0	102
47	753	0	119
47	891	0	124
47	1218	0	127
47	1270	0	127
47	1278	0	127
47	1738	0	128
47	1820	0	128
47	2368	0	135
47	2484	0	138
47	3420	0	139
47	3952	0	141
47	3992	0	141
47	4320	0	141
47	4484	0	141
47	4628	0	141
47	5028	0	142
47	5092	0	143
47	5808	0	143
47	5816	0	143
47	5860	0	143
47	5888	0	143
47	6888	0	144
47	6912	0	144
47	8048	0	144
48	68	0	49
48	78	0	56
48	114	0	73
48	329	0	97
48	397	0	99
48	552	0	102
48	587	0	106
48	763	0	119
48	818	0	124
48	908	0	124
48	1074	0	124
48	1402	0	127
48	1508	0	127
48	1712	0	128
48	1774	0	128
48	1780	0	128
48	1946	0	129
48	2046	0	130
48	2108	0	130
48	2112	0	130
48	2422	0	136
48	2578	0	138
48	2636	0	138
48	3664	0	141
48	3896	0	141
48	3916	0	141
48	4252	0	141
48	4540	0	141
48	4736	0	141
48	5184	0	143
48	5196	0	143
48	5268	0	143
48	5384	0	143
48	5848	0	143
48	5924	0	143
48	6036	0	143
48	6280	0	143
48	6432	0	144
48	6872	0	144
48	7432	0	144
48	8856	0	144
49	70	0	50
49	93	0	61
49	559	0	102
49	1008	0	124
49	1122	0	126
49	1150	0	127
49	1364	0	127
49	1880	0	129
49	2440	0	138
49	2450	0	138
49	2458	0	138
49	2988	0	139
49	4228	0	141
49	4428	0	141
49	4444	0	141
49	4912	0	141
49	6984	0	144
49	7936	0	144
49	9072	0	144
50	71	0	51
50	101	0	65
50	241	0	94
50	256	0	94
50	291	0	96
50	296	0	96
50	388	0	99
50	432	0	100
50	487	0	101
50	658	0	110
50	707	0	118
50	878	0	124
50	880	0	124
50	884	0	124
50	910	0	124
50	1012	0	124
50	1060	0	124
50	1086	0	124
50	1120	0	126
50	1320	0	127
50	1490	0	127
50	1682	0	128
50	2062	0	130
50	2262	0	135
50	3312	0	139
50	3508	0	139
50	3596	0	141
50	4304	0	141
50	5900	0	143
50	7128	0	144
50	8880	0	144
51	72	0	52
51	261	0	94
51	270	0	95
51	310	0	96
51	378	0	99
51	403	0	99
51	523	0	102
51	564	0	102
51	566	0	102
51	672	0	110
51	674	0	110
51	772	0	119
51	778	0	119
51	821	0	124
51	851	0	124
51	915	0	124
51	927	0	124
51	931	0	124
51	1042	0	124
51	1128	0	127
51	1152	0	127
51	1222	0	127
51	1386	0	127
51	1500	0	127
51	1602	0	128
51	1694	0	128
51	1854	0	129
51	2006	0	129
51	2428	0	136
51	2746	0	138
51	2750	0	138
51	2814	0	138
51	2822	0	138
51	3344	0	139
51	3444	0	139
51	3736	0	141
51	3744	0	141
51	4372	0	141
51	4700	0	141
51	4936	0	141
51	6084	0	143
51	6224	0	143
51	6416	0	144
51	6900	0	144
51	7048	0	144
51	7160	0	144
51	7392	0	144
51	7496	0	144
51	7712	0	144
51	7912	0	144
51	7992	0	144
51	8144	0	144
52	73	0	53
52	123	0	76
52	210	0	90
52	262	0	94
52	414	0	100
52	440	0	100
52	465	0	101
52	622	0	109
52	654	0	110
52	739	0	119
52	764	0	119
52	858	0	124
52	876	0	124
52	907	0	124
52	930	0	124
52	947	0	124
52	955	0	124
52	1114	0	126
52	1256	0	127
52	1750	0	128
52	1904	0	129
52	1938	0	129
52	1948	0	129
52	1954	0	129
52	1962	0	129
52	2134	0	130
52	2322	0	135
52	2476	0	138
52	2650	0	138
52	2802	0	138
52	3408	0	139
52	3520	0	139
52	3584	0	139
52	4312	0	141
52	4476	0	141
52	5020	0	142
52	5232	0	143
52	5932	0	143
52	6204	0	143
52	6496	0	144
52	6904	0	144
52	6948	0	144
52	7024	0	144
52	7096	0	144
52	7152	0	144
52	7736	0	144
52	8384	0	144
52	9216	0	144
53	74	0	54
53	158	0	85
53	176	0	88
53	258	0	94
53	586	0	106
53	635	0	109
53	720	0	118
53	758	0	119
53	761	0	119
53	813	0	124
53	921	0	124
53	1204	0	127
53	1334	0	127
53	1446	0	127
53	1468	0	127
53	1614	0	128
53	1672	0	128
53	1726	0	128
53	1952	0	129
53	2342	0	135
53	2350	0	135
53	2374	0	135
53	2402	0	135
53	2640	0	138
53	2790	0	138
53	2860	0	138
53	3316	0	139
53	3416	0	139
53	3432	0	139
53	3496	0	139
53	3512	0	139
53	3632	0	141
53	3972	0	141
53	4076	0	141
53	4200	0	141
53	4488	0	141
53	5160	0	143
53	5944	0	143
53	6144	0	143
53	6436	0	144
53	6508	0	144
53	7760	0	144
53	8736	0	144
54	76	0	55
54	214	0	91
54	232	0	92
54	318	0	97
54	476	0	101
54	547	0	102
54	608	0	109
54	767	0	119
54	995	0	124
54	1170	0	127
54	1440	0	127
54	1518	0	127
54	1700	0	128
54	1816	0	128
54	1990	0	129
54	2556	0	138
54	3320	0	139
54	3456	0	139
54	5084	0	143
54	5604	0	143
54	5872	0	143
54	6336	0	143
54	6880	0	144
54	7144	0	144
55	77	0	56
55	135	0	80
55	155	0	84
55	166	0	88
55	175	0	88
55	183	0	89
55	203	0	90
55	216	0	91
55	294	0	96
55	304	0	96
55	405	0	99
55	484	0	101
55	656	0	110
55	843	0	124
55	888	0	124
55	918	0	124
55	925	0	124
55	1000	0	124
55	1200	0	127
55	1238	0	127
55	1668	0	128
55	1684	0	128
55	1728	0	128
55	1792	0	128
55	1806	0	128
55	1856	0	129
55	1862	0	129
55	1936	0	129
55	2264	0	135
55	2502	0	138
55	2976	0	139
55	3300	0	139
55	3488	0	139
55	3624	0	141
55	4280	0	141
55	4572	0	141
55	4664	0	141
55	4984	0	141
55	5072	0	143
55	5264	0	143
55	5340	0	143
55	5372	0	143
55	5908	0	143
55	6260	0	143
55	6468	0	144
55	6568	0	144
55	7008	0	144
55	7032	0	144
55	7056	0	144
55	8840	0	144
56	81	0	57
56	122	0	76
56	147	0	84
56	182	0	89
56	192	0	89
56	201	0	90
56	290	0	96
56	313	0	97
56	377	0	99
56	438	0	100
56	497	0	102
56	499	0	102
56	582	0	106
56	849	0	124
56	854	0	124
56	872	0	124
56	981	0	124
56	1062	0	124
56	1156	0	127
56	1326	0	127
56	1678	0	128
56	1860	0	129
56	1924	0	129
56	2102	0	130
56	2132	0	130
56	2316	0	135
56	2584	0	138
56	2874	0	138
56	3712	0	141
56	4196	0	141
56	4500	0	141
56	4508	0	141
56	4532	0	141
56	4596	0	141
56	5296	0	143
56	5948	0	143
56	6060	0	143
56	6428	0	144
56	6608	0	144
56	8128	0	144
56	8160	0	144
56	8432	0	144
57	83	0	58
57	125	0	76
57	208	0	90
57	212	0	91
57	301	0	96
57	328	0	97
57	455	0	100
57	495	0	102
57	532	0	102
57	540	0	102
57	562	0	102
57	626	0	109
57	684	0	110
57	745	0	119
57	783	0	119
57	831	0	124
57	924	0	124
57	979	0	124
57	1432	0	127
57	1514	0	127
57	1724	0	128
57	1832	0	128
57	2098	0	130
57	2758	0	138
57	3292	0	139
57	3324	0	139
57	3636	0	141
57	3720	0	141
57	4520	0	141
57	5096	0	143
57	5128	0	143
57	5152	0	143
57	5284	0	143
57	5320	0	143
57	5636	0	143
57	5840	0	143
57	5952	0	143
57	6196	0	143
57	6320	0	143
57	6352	0	144
57	7664	0	144
57	8768	0	144
57	8808	0	144
58	87	0	59
58	148	0	84
58	195	0	89
58	448	0	100
58	511	0	102
58	710	0	118
58	714	0	118
58	847	0	124
58	871	0	124
58	879	0	124
58	885	0	124
58	905	0	124
58	988	0	124
58	1460	0	127
58	1474	0	127
58	1616	0	128
58	1778	0	128
58	2034	0	129
58	2096	0	130
58	2122	0	130
58	2130	0	130
58	2248	0	135
58	2348	0	135
58	2516	0	138
58	2536	0	138
58	2660	0	138
58	2756	0	138
58	2760	0	138
58	2764	0	138
58	2854	0	138
58	2882	0	138
58	3276	0	139
58	3348	0	139
58	3484	0	139
58	3580	0	139
58	3920	0	141
58	3960	0	141
58	4040	0	141
58	4180	0	141
58	4204	0	141
58	4688	0	141
58	4732	0	141
58	4840	0	141
58	5124	0	143
58	5224	0	143
58	5880	0	143
58	6100	0	143
58	8520	0	144
59	90	0	60
59	150	0	84
59	154	0	84
59	186	0	89
59	276	0	95
59	345	0	98
59	426	0	100
59	515	0	102
59	614	0	109
59	673	0	110
59	806	0	124
59	820	0	124
59	852	0	124
59	1014	0	124
59	1190	0	127
59	1766	0	128
59	1824	0	128
59	1834	0	128
59	1866	0	129
59	2038	0	130
59	2120	0	130
59	2304	0	135
59	2638	0	138
59	2838	0	138
59	2982	0	139
59	3244	0	139
59	3620	0	141
59	4024	0	141
59	4032	0	141
59	5628	0	143
59	6908	0	144
59	8184	0	144
59	8960	0	144
60	91	0	61
60	113	0	73
60	127	0	76
60	215	0	91
60	238	0	94
60	248	0	94
60	333	0	97
60	355	0	98
60	385	0	99
60	404	0	99
60	420	0	100
60	553	0	102
60	630	0	109
60	632	0	109
60	659	0	110
60	895	0	124
60	971	0	124
60	1210	0	127
60	1268	0	127
60	1290	0	127
60	1770	0	128
60	1794	0	128
60	1892	0	129
60	2000	0	129
60	2336	0	135
60	2414	0	136
60	2486	0	138
60	2652	0	138
60	2752	0	138
60	2798	0	138
60	3340	0	139
60	3500	0	139
60	3884	0	141
60	5856	0	143
60	5964	0	143
60	6108	0	143
60	7768	0	144
60	8192	0	144
61	95	0	62
61	679	0	110
61	881	0	124
61	1118	0	126
61	2944	0	139
61	4380	0	141
61	4648	0	141
61	4784	0	141
61	4992	0	141
61	6968	0	144
61	9152	0	144
62	97	0	63
62	165	0	88
62	191	0	89
62	282	0	95
62	556	0	102
62	651	0	110
62	890	0	124
62	935	0	124
62	1066	0	124
62	1160	0	127
62	1486	0	127
62	1622	0	128
62	1762	0	128
62	1900	0	129
62	1926	0	129
62	2014	0	129
62	2260	0	135
62	2490	0	138
62	2494	0	138
62	2500	0	138
62	2554	0	138
62	3900	0	141
62	4676	0	141
62	5100	0	143
62	5892	0	143
62	6940	0	144
62	7888	0	144
62	8088	0	144
62	8152	0	144
62	8928	0	144
62	9208	0	144
63	99	0	64
63	160	0	85
63	269	0	95
63	279	0	95
63	338	0	97
63	387	0	99
63	394	0	99
63	675	0	110
63	689	0	110
63	866	0	124
63	869	0	124
63	976	0	124
63	1022	0	124
63	1350	0	127
63	1604	0	128
63	1628	0	128
63	1716	0	128
63	2850	0	138
63	4432	0	141
63	4448	0	141
63	4468	0	141
63	4996	0	141
63	6444	0	144
63	7112	0	144
63	7680	0	144
63	8000	0	144
64	100	0	65
64	246	0	94
64	280	0	95
64	336	0	97
64	524	0	102
64	865	0	124
64	973	0	124
64	1054	0	124
64	1136	0	127
64	1146	0	127
64	1360	0	127
64	1882	0	129
64	2004	0	129
64	2268	0	135
64	2460	0	138
64	2968	0	139
64	2986	0	139
64	2994	0	139
64	3748	0	141
64	4220	0	141
64	4640	0	141
64	4712	0	141
64	4884	0	141
64	6304	0	143
64	6384	0	144
64	6992	0	144
64	7944	0	144
64	7960	0	144
64	9136	0	144
65	102	0	66
65	110	0	72
65	128	0	76
65	134	0	80
65	327	0	97
65	350	0	98
65	382	0	99
65	399	0	99
65	489	0	101
65	530	0	102
65	534	0	102
65	663	0	110
65	748	0	119
65	859	0	124
65	941	0	124
65	964	0	124
65	1492	0	127
65	1586	0	128
65	1704	0	128
65	1956	0	129
65	2256	0	135
65	2288	0	135
65	2984	0	139
65	3524	0	139
65	4872	0	141
65	5648	0	143
65	6288	0	143
65	6312	0	143
65	6920	0	144
65	8064	0	144
65	8784	0	144
65	9192	0	144
66	103	0	67
66	107	0	70
66	1542	0	127
66	1548	0	127
66	2916	0	139
66	5780	0	143
66	5992	0	143
66	7776	0	144
66	8040	0	144
66	8336	0	144
67	104	0	68
67	1546	0	127
67	1574	0	128
67	2894	0	138
67	2924	0	139
67	5676	0	143
67	5996	0	143
68	105	0	69
68	791	0	121
68	803	0	124
68	1554	0	128
68	1560	0	128
68	1570	0	128
68	2908	0	138
68	5660	0	143
68	5724	0	143
68	5748	0	143
68	5772	0	143
68	6004	0	143
69	106	0	70
69	793	0	122
69	797	0	124
69	799	0	124
69	1558	0	128
69	1564	0	128
69	1576	0	128
69	2896	0	138
69	2922	0	139
69	5684	0	143
69	5696	0	143
69	5732	0	143
69	5764	0	143
69	6008	0	143
69	6020	0	143
70	108	0	71
70	138	0	81
70	253	0	94
70	260	0	94
70	349	0	98
70	351	0	98
70	356	0	98
70	461	0	101
70	464	0	101
70	503	0	102
70	516	0	102
70	522	0	102
70	526	0	102
70	864	0	124
70	929	0	124
70	966	0	124
70	1056	0	124
70	1110	0	126
70	1134	0	127
70	1540	0	127
70	1800	0	128
70	1960	0	129
70	2010	0	129
70	2032	0	129
70	2074	0	130
70	2286	0	135
70	2296	0	135
70	2464	0	138
70	2488	0	138
70	2766	0	138
70	2842	0	138
70	2852	0	138
70	2938	0	139
70	3888	0	141
70	4012	0	141
70	4420	0	141
70	4652	0	141
70	4716	0	141
70	4728	0	141
70	4836	0	141
70	4880	0	141
70	5328	0	143
70	5904	0	143
70	5912	0	143
70	6228	0	143
70	6276	0	143
70	6952	0	144
70	9024	0	144
71	109	0	72
71	245	0	94
71	250	0	94
71	266	0	94
71	275	0	95
71	293	0	96
71	379	0	99
71	517	0	102
71	554	0	102
71	620	0	109
71	650	0	110
71	719	0	118
71	842	0	124
71	898	0	124
71	992	0	124
71	1018	0	124
71	1072	0	124
71	1220	0	127
71	1254	0	127
71	1472	0	127
71	1504	0	127
71	1790	0	128
71	1958	0	129
71	1964	0	129
71	2320	0	135
71	2326	0	135
71	2806	0	138
71	2934	0	139
71	3728	0	141
71	4212	0	141
71	4240	0	141
71	4752	0	141
71	4960	0	141
71	5052	0	142
71	5144	0	143
71	5312	0	143
71	6344	0	144
71	6916	0	144
71	7080	0	144
71	7560	0	144
71	8536	0	144
71	8936	0	144
72	112	0	73
72	133	0	80
72	168	0	88
72	207	0	90
72	300	0	96
72	312	0	97
72	316	0	97
72	422	0	100
72	538	0	102
72	542	0	102
72	685	0	110
72	742	0	119
72	919	0	124
72	932	0	124
72	942	0	124
72	1394	0	127
72	1400	0	127
72	1478	0	127
72	1736	0	128
72	1828	0	128
72	2080	0	130
72	2878	0	138
72	3476	0	139
72	4456	0	141
72	4704	0	141
72	4720	0	141
72	4964	0	141
72	5148	0	143
72	5192	0	143
72	5200	0	143
72	5396	0	143
72	5520	0	143
72	5600	0	143
72	6080	0	143
72	6172	0	143
72	6376	0	144
72	6464	0	144
72	6928	0	144
72	7568	0	144
72	8552	0	144
72	9200	0	144
73	116	0	74
73	149	0	84
73	185	0	89
73	334	0	97
73	452	0	100
73	505	0	102
73	680	0	110
73	776	0	119
73	860	0	124
73	1124	0	126
73	1248	0	127
73	1262	0	127
73	1308	0	127
73	1346	0	127
73	1422	0	127
73	1502	0	127
73	1890	0	129
73	2028	0	129
73	2400	0	135
73	2816	0	138
73	4168	0	141
73	4684	0	141
73	4776	0	141
73	4904	0	141
73	5288	0	143
73	5844	0	143
73	6032	0	143
73	6800	0	144
73	7488	0	144
73	7552	0	144
73	8440	0	144
73	8888	0	144
73	9120	0	144
73	9240	0	145
74	118	0	75
74	231	0	92
74	295	0	96
74	332	0	97
74	365	0	99
74	375	0	99
74	401	0	99
74	417	0	100
74	431	0	100
74	486	0	101
74	544	0	102
74	550	0	102
74	565	0	102
74	607	0	109
74	681	0	110
74	746	0	119
74	751	0	119
74	754	0	119
74	855	0	124
74	962	0	124
74	986	0	124
74	1302	0	127
74	1382	0	127
74	1388	0	127
74	1444	0	127
74	1600	0	128
74	1872	0	129
74	1994	0	129
74	2394	0	135
74	2550	0	138
74	2870	0	138
74	3296	0	139
74	3308	0	139
74	3388	0	139
74	4084	0	141
74	4560	0	141
74	4740	0	141
74	4968	0	141
74	5176	0	143
74	5960	0	143
74	6128	0	143
74	6576	0	144
74	6864	0	144
74	6944	0	144
74	7072	0	144
74	7464	0	144
74	8176	0	144
74	8264	0	144
74	8824	0	144
74	8984	0	144
75	120	0	76
75	661	0	110
75	958	0	124
75	5784	0	143
76	129	0	77
76	144	0	83
76	243	0	94
76	339	0	97
76	535	0	102
76	558	0	102
76	965	0	124
76	974	0	124
76	1080	0	124
76	1358	0	127
76	1412	0	127
76	1642	0	128
76	1878	0	129
76	1920	0	129
76	2942	0	139
76	4876	0	141
76	4908	0	141
76	5000	0	142
76	6456	0	144
76	7640	0	144
76	8248	0	144
76	9032	0	144
76	9112	0	144
77	130	0	78
77	141	0	82
77	1414	0	127
77	2274	0	135
77	2438	0	137
77	2444	0	138
77	2962	0	139
77	5004	0	142
77	7304	0	144
77	7536	0	144
77	9048	0	144
78	131	0	79
78	1718	0	128
78	1884	0	129
78	2272	0	135
78	2958	0	139
78	4892	0	141
78	5008	0	142
78	6980	0	144
78	7000	0	144
78	7528	0	144
79	132	0	80
79	337	0	97
79	506	0	102
79	531	0	102
79	668	0	110
79	868	0	124
79	933	0	124
79	953	0	124
79	1088	0	124
79	1132	0	127
79	1408	0	127
79	1634	0	128
79	1644	0	128
79	2456	0	138
79	2742	0	138
79	2820	0	138
79	2844	0	138
79	3740	0	141
79	4016	0	141
79	4164	0	141
79	4236	0	141
79	4396	0	141
79	4404	0	141
79	5644	0	143
79	6212	0	143
79	6308	0	143
79	6380	0	144
79	7672	0	144
79	8544	0	144
79	9064	0	144
79	9144	0	144
80	137	0	81
80	244	0	94
80	257	0	94
80	259	0	94
80	374	0	99
80	383	0	99
80	507	0	102
80	555	0	102
80	563	0	102
80	613	0	109
80	686	0	110
80	805	0	124
80	863	0	124
80	1188	0	127
80	1288	0	127
80	1670	0	128
80	1876	0	129
80	2284	0	135
80	2292	0	135
80	2654	0	138
80	2846	0	138
80	2866	0	138
80	2890	0	138
80	2932	0	139
80	3532	0	139
80	4356	0	141
80	4472	0	141
80	4576	0	141
80	4632	0	141
80	4668	0	141
80	4932	0	141
80	5336	0	143
80	5640	0	143
80	6028	0	143
80	7648	0	144
80	8056	0	144
81	140	0	82
81	142	0	82
81	228	0	92
81	242	0	94
81	252	0	94
81	342	0	98
81	666	0	110
81	773	0	119
81	949	0	124
81	975	0	124
81	1084	0	124
81	1090	0	124
81	1096	0	124
81	1354	0	127
81	1410	0	127
81	1656	0	128
81	1916	0	129
81	2430	0	136
81	2446	0	138
81	7632	0	144
81	7928	0	144
81	9096	0	144
82	143	0	83
82	152	0	84
82	159	0	85
82	202	0	90
82	247	0	94
82	281	0	95
82	314	0	97
82	357	0	98
82	760	0	119
82	808	0	124
82	832	0	124
82	870	0	124
82	886	0	124
82	950	0	124
82	977	0	124
82	1020	0	124
82	1052	0	124
82	1318	0	127
82	1366	0	127
82	1714	0	128
82	1786	0	128
82	1796	0	128
82	2408	0	136
82	2432	0	137
82	2492	0	138
82	2662	0	138
82	2974	0	139
82	3536	0	139
82	3648	0	141
82	3716	0	141
82	4376	0	141
82	4680	0	141
82	4708	0	141
82	4780	0	141
82	4824	0	141
82	4988	0	141
82	5156	0	143
82	7696	0	144
82	7896	0	144
82	8072	0	144
82	8952	0	144
83	146	0	84
83	346	0	98
83	348	0	98
83	396	0	99
83	453	0	100
83	521	0	102
83	606	0	109
83	771	0	119
83	810	0	124
83	841	0	124
83	1030	0	124
83	1244	0	127
83	1284	0	127
83	1338	0	127
83	1454	0	127
83	1674	0	128
83	1692	0	128
83	1942	0	129
83	2012	0	129
83	2030	0	129
83	2040	0	130
83	2070	0	130
83	2088	0	130
83	2092	0	130
83	2124	0	130
83	2190	0	135
83	2334	0	135
83	2552	0	138
83	2576	0	138
83	2754	0	138
83	2778	0	138
83	3284	0	139
83	3564	0	139
83	3964	0	141
83	4176	0	141
83	4544	0	141
83	4604	0	141
83	4812	0	141
83	5916	0	143
83	6236	0	143
84	156	0	85
84	233	0	92
84	469	0	101
84	474	0	101
84	549	0	102
84	610	0	109
84	826	0	124
84	999	0	124
84	1376	0	127
84	1592	0	128
84	1760	0	128
84	1810	0	128
84	1814	0	128
84	1840	0	128
84	1930	0	129
84	3460	0	139
84	3680	0	141
84	3880	0	141
84	6328	0	143
84	7368	0	144
84	7784	0	144
84	8032	0	144
85	161	0	86
85	181	0	89
85	229	0	92
85	264	0	94
85	343	0	98
85	352	0	98
85	369	0	99
85	381	0	99
85	551	0	102
85	583	0	106
85	634	0	109
85	688	0	110
85	749	0	119
85	882	0	124
85	906	0	124
85	980	0	124
85	983	0	124
85	1050	0	124
85	1154	0	127
85	1312	0	127
85	1404	0	127
85	1488	0	127
85	1658	0	128
85	1914	0	129
85	1950	0	129
85	2290	0	135
85	2294	0	135
85	2530	0	138
85	2800	0	138
85	2808	0	138
85	2864	0	138
85	2936	0	139
85	3996	0	141
85	4184	0	141
85	4384	0	141
85	4452	0	141
85	4856	0	141
85	5076	0	143
85	6048	0	143
85	6104	0	143
85	6132	0	143
85	6152	0	143
85	6188	0	143
85	6208	0	143
85	6240	0	143
85	6792	0	144
85	7352	0	144
85	8256	0	144
85	8920	0	144
86	162	0	87
86	222	0	92
86	627	0	109
86	649	0	110
86	653	0	110
86	757	0	119
86	827	0	124
86	936	0	124
86	957	0	124
86	961	0	124
86	2370	0	135
86	2978	0	139
86	3472	0	139
86	3672	0	141
86	3696	0	141
86	4316	0	141
86	4672	0	141
86	5216	0	143
86	5792	0	143
86	5940	0	143
86	6848	0	144
86	6924	0	144
86	7360	0	144
86	7728	0	144
86	8344	0	144
86	8800	0	144
86	8816	0	144
87	163	0	88
87	223	0	92
87	447	0	100
87	457	0	100
87	619	0	109
87	756	0	119
87	786	0	119
87	937	0	124
87	945	0	124
87	1158	0	127
87	1258	0	127
87	1266	0	127
87	1316	0	127
87	1506	0	127
87	1516	0	127
87	1594	0	128
87	1608	0	128
87	1624	0	128
87	1702	0	128
87	1730	0	128
87	1852	0	129
87	1988	0	129
87	2016	0	129
87	2128	0	130
87	2378	0	135
87	2568	0	138
87	2868	0	138
87	3732	0	141
87	4068	0	141
87	4092	0	141
87	4360	0	141
87	4820	0	141
87	5392	0	143
87	5968	0	143
87	5984	0	143
87	6220	0	143
87	6408	0	144
87	6572	0	144
87	7376	0	144
87	7720	0	144
87	7752	0	144
87	8104	0	144
87	8304	0	144
87	8744	0	144
87	9016	0	144
88	178	0	89
88	2174	0	135
88	2830	0	138
88	3120	0	139
88	3152	0	139
88	3160	0	139
88	5476	0	143
88	5484	0	143
88	5496	0	143
88	5588	0	143
88	6628	0	144
88	6640	0	144
88	6652	0	144
88	6828	0	144
88	8592	0	144
89	200	0	90
89	206	0	90
89	367	0	99
89	389	0	99
89	413	0	100
89	467	0	101
89	502	0	102
89	588	0	106
89	785	0	119
89	822	0	124
89	833	0	124
89	1534	0	127
89	2086	0	130
89	2390	0	135
89	2646	0	138
89	2884	0	138
89	3544	0	139
89	3604	0	141
89	4088	0	141
89	4860	0	141
89	4900	0	141
89	4952	0	141
89	4976	0	141
89	5112	0	143
89	5140	0	143
89	6484	0	144
89	6528	0	144
89	7064	0	144
89	7336	0	144
89	7440	0	144
89	8016	0	144
89	8848	0	144
90	211	0	91
90	361	0	98
90	446	0	100
90	458	0	100
90	473	0	101
90	479	0	101
90	483	0	101
90	519	0	102
90	609	0	109
90	629	0	109
90	718	0	118
90	844	0	124
90	896	0	124
90	996	0	124
90	1036	0	124
90	1174	0	127
90	1276	0	127
90	1280	0	127
90	1698	0	128
90	1752	0	128
90	1808	0	128
90	1850	0	129
90	1928	0	129
90	1984	0	129
90	2020	0	129
90	3392	0	139
90	3692	0	141
90	4364	0	141
90	4480	0	141
90	5036	0	142
90	5308	0	143
90	5980	0	143
90	6248	0	143
90	6852	0	144
90	8376	0	144
90	8760	0	144
91	219	0	92
91	347	0	98
91	358	0	98
91	402	0	99
91	427	0	100
91	633	0	109
91	705	0	118
91	889	0	124
91	985	0	124
91	987	0	124
91	1214	0	127
91	1524	0	127
91	1768	0	128
91	1772	0	128
91	2064	0	130
91	2498	0	138
91	2514	0	138
91	2518	0	138
91	3280	0	139
91	3332	0	139
91	3656	0	141
91	4060	0	141
91	4288	0	141
91	4528	0	141
91	4564	0	141
91	4660	0	141
91	5824	0	143
91	6072	0	143
91	6140	0	143
91	6524	0	144
91	6772	0	144
91	6932	0	144
91	8504	0	144
91	8576	0	144
92	235	0	93
92	362	0	98
92	475	0	101
92	892	0	124
92	1842	0	128
92	1846	0	129
92	3876	0	141
92	5032	0	142
92	5608	0	143
92	8360	0	144
93	236	0	94
93	893	0	124
93	938	0	124
93	959	0	124
93	1378	0	127
93	1986	0	129
93	5812	0	143
93	5864	0	143
94	267	0	95
94	298	0	96
94	303	0	96
94	406	0	99
94	441	0	100
94	498	0	102
94	529	0	102
94	625	0	109
94	657	0	110
94	664	0	110
94	825	0	124
94	840	0	124
94	916	0	124
94	967	0	124
94	1068	0	124
94	1126	0	126
94	1530	0	127
94	1662	0	128
94	1894	0	129
94	2330	0	135
94	2406	0	136
94	2648	0	138
94	2656	0	138
94	2834	0	138
94	3384	0	139
94	3516	0	139
94	3612	0	141
94	3968	0	141
94	4264	0	141
94	4324	0	141
94	4416	0	141
94	5132	0	143
94	5344	0	143
94	6368	0	144
94	6796	0	144
94	6884	0	144
94	7016	0	144
94	7592	0	144
94	8288	0	144
94	8992	0	144
94	9008	0	144
95	287	0	96
95	572	0	102
95	1164	0	127
95	2206	0	135
95	2362	0	135
95	2674	0	138
95	2682	0	138
95	2716	0	138
95	3104	0	139
95	5564	0	143
95	6752	0	144
95	7848	0	144
95	8704	0	144
96	311	0	97
96	370	0	99
96	490	0	101
96	928	0	124
96	994	0	124
96	1100	0	124
96	1260	0	127
96	1398	0	127
96	1660	0	128
96	1972	0	129
96	1980	0	129
96	2044	0	130
96	2192	0	135
96	2480	0	138
96	2762	0	138
96	2776	0	138
96	3336	0	139
96	3396	0	139
96	3756	0	141
96	3944	0	141
96	4000	0	141
96	4048	0	141
96	4512	0	141
96	4624	0	141
96	4696	0	141
96	5256	0	143
96	5332	0	143
96	5632	0	143
96	5936	0	143
96	6420	0	144
96	8872	0	144
96	8896	0	144
97	340	0	98
97	434	0	100
97	867	0	124
97	1092	0	124
97	1352	0	127
97	1362	0	127
97	1638	0	128
97	1650	0	128
97	2436	0	137
97	2948	0	139
97	2952	0	139
97	2966	0	139
97	2992	0	139
97	4788	0	141
97	6388	0	144
97	6452	0	144
97	6960	0	144
97	7312	0	144
97	7512	0	144
97	8456	0	144
97	9040	0	144
97	9056	0	144
97	9088	0	144
97	9104	0	144
98	363	0	99
98	472	0	101
98	768	0	119
98	944	0	124
98	1380	0	127
98	1756	0	128
98	2404	0	136
98	2564	0	138
98	3684	0	141
98	4268	0	141
98	6564	0	144
98	6856	0	144
99	408	0	100
99	477	0	101
99	997	0	124
99	2242	0	135
99	6844	0	144
100	459	0	101
100	485	0	101
100	590	0	106
100	740	0	119
100	828	0	124
100	850	0	124
100	940	0	124
100	993	0	124
100	1044	0	124
100	1180	0	127
100	1462	0	127
100	1740	0	128
100	1798	0	128
100	2198	0	135
100	2282	0	135
100	2570	0	138
100	2862	0	138
100	2888	0	138
100	3304	0	139
100	3380	0	139
100	3504	0	139
100	3548	0	139
100	4056	0	141
100	4260	0	141
100	4368	0	141
100	4460	0	141
100	4496	0	141
100	4588	0	141
100	4868	0	141
100	5240	0	143
100	5260	0	143
100	5304	0	143
100	5820	0	143
100	5828	0	143
100	6252	0	143
100	6784	0	144
100	6876	0	144
100	7656	0	144
101	493	0	102
101	546	0	102
101	660	0	110
101	1590	0	128
101	1818	0	128
101	1998	0	129
101	2506	0	138
101	5788	0	143
101	5868	0	143
101	8200	0	144
101	8368	0	144
102	576	0	103
102	3140	0	139
102	3832	0	141
102	5448	0	143
102	5504	0	143
103	578	0	104
103	1294	0	127
103	2140	0	130
103	2144	0	131
103	2182	0	135
103	2208	0	135
103	2732	0	138
103	3176	0	139
103	3216	0	139
103	3796	0	141
103	6708	0	144
103	8656	0	144
104	580	0	105
104	646	0	110
104	2178	0	135
104	3004	0	139
104	3116	0	139
104	5480	0	143
104	5492	0	143
104	6816	0	144
105	581	0	106
105	594	0	106
105	2116	0	130
105	2534	0	138
105	2628	0	138
105	2786	0	138
105	3352	0	139
105	3560	0	139
105	3576	0	139
105	5488	0	143
105	5528	0	143
105	6520	0	144
105	8584	0	144
106	596	0	107
106	731	0	119
106	2618	0	138
106	2690	0	138
106	3132	0	139
106	3860	0	141
106	5464	0	143
106	6680	0	144
107	599	0	108
107	2668	0	138
107	6544	0	144
107	6748	0	144
108	600	0	109
108	722	0	118
108	735	0	119
108	2138	0	130
108	2354	0	135
108	3212	0	139
108	3228	0	139
108	3868	0	141
108	6560	0	144
108	6584	0	144
108	6840	0	144
108	8664	0	144
109	638	0	110
109	644	0	110
109	729	0	118
109	1296	0	127
109	1968	0	129
109	2712	0	138
109	3232	0	139
109	3356	0	139
109	3816	0	141
109	5412	0	143
109	5568	0	143
109	5592	0	143
109	6116	0	143
109	6644	0	144
109	6660	0	144
109	6728	0	144
109	6836	0	144
109	7800	0	144
109	8632	0	144
109	8712	0	144
110	690	0	111
110	811	0	124
110	7168	0	144
111	691	0	112
111	7176	0	144
111	7200	0	144
111	7216	0	144
112	692	0	113
112	695	0	115
112	698	0	117
112	7208	0	144
112	7240	0	144
112	7280	0	144
113	693	0	114
113	699	0	117
113	7272	0	144
113	7288	0	144
114	694	0	115
114	7248	0	144
115	696	0	116
115	7192	0	144
115	7232	0	144
116	697	0	117
117	700	0	118
117	1416	0	127
117	2442	0	138
117	2950	0	139
117	2956	0	139
117	7264	0	144
117	7296	0	144
117	7520	0	144
118	730	0	119
118	2168	0	135
118	2600	0	138
118	2686	0	138
118	3044	0	139
118	3856	0	141
118	5444	0	143
118	5452	0	143
118	6672	0	144
118	6732	0	144
119	789	0	120
119	960	0	124
119	1588	0	128
119	2898	0	138
119	2920	0	139
119	5088	0	143
119	5612	0	143
119	5672	0	143
119	8208	0	144
120	790	0	121
120	1550	0	127
120	1582	0	128
120	2906	0	138
120	2910	0	138
120	2928	0	139
120	4928	0	141
120	5652	0	143
120	5716	0	143
120	5776	0	143
121	792	0	122
121	798	0	124
121	804	0	124
121	1544	0	127
121	1566	0	128
121	1580	0	128
121	2892	0	138
121	2900	0	138
121	2904	0	138
121	2914	0	139
121	5668	0	143
121	6016	0	143
121	6024	0	143
122	794	0	123
122	796	0	124
122	801	0	124
122	1556	0	128
122	1578	0	128
122	5664	0	143
122	5680	0	143
122	5688	0	143
122	5752	0	143
122	6000	0	143
123	795	0	124
123	800	0	124
123	802	0	124
123	1562	0	128
123	1568	0	128
123	2902	0	138
123	5700	0	143
123	5708	0	143
123	5720	0	143
123	5756	0	143
124	1552	0	128
124	1572	0	128
124	5692	0	143
124	5704	0	143
124	5740	0	143
124	6012	0	143
125	1844	0	129
125	1848	0	129
125	4272	0	141
126	2142	0	131
126	2360	0	135
126	7824	0	144
126	7840	0	144
127	2146	0	131
127	2714	0	138
127	2728	0	138
127	3100	0	139
127	3776	0	141
127	3784	0	141
127	5428	0	143
127	5560	0	143
127	6696	0	144
128	2148	0	132
128	2724	0	138
128	3780	0	141
129	2150	0	133
129	2160	0	135
129	2164	0	135
129	2726	0	138
129	3096	0	139
129	3188	0	139
129	5420	0	143
130	2152	0	134
130	2162	0	135
130	2166	0	135
130	2598	0	138
130	2704	0	138
130	3076	0	139
130	3184	0	139
130	3196	0	139
130	3208	0	139
130	3772	0	141
130	3844	0	141
130	3864	0	141
130	6664	0	144
130	6684	0	144
131	2156	0	134
131	2218	0	135
131	2684	0	138
131	2730	0	138
131	3192	0	139
131	3224	0	139
131	5416	0	143
131	5556	0	143
131	8608	0	144
131	8672	0	144
132	2158	0	135
132	2212	0	135
132	2608	0	138
132	3092	0	139
132	5424	0	143
132	6548	0	144
133	2224	0	135
133	2602	0	138
133	2722	0	138
133	3040	0	139
133	3048	0	139
133	6676	0	144
134	2594	0	138
134	2672	0	138
134	2700	0	138
134	3108	0	139
134	3156	0	139
134	3848	0	141
134	5512	0	143
134	5548	0	143
134	6624	0	144
134	6648	0	144
134	6688	0	144
134	6812	0	144
134	8648	0	144
135	2596	0	138
135	3012	0	139
135	3080	0	139
135	3768	0	141
135	3812	0	141
135	4140	0	141
135	5456	0	143
135	5572	0	143
135	6712	0	144
135	8624	0	144
136	2614	0	138
136	2692	0	138
136	3200	0	139
136	4116	0	141
136	4124	0	141
136	5500	0	143
136	5536	0	143
136	5584	0	143
136	6740	0	144
137	2912	0	139
137	2926	0	139
137	5656	0	143
137	5712	0	143
137	5728	0	143
137	5736	0	143
137	5744	0	143
137	5760	0	143
137	5768	0	143
138	7184	0	144
138	7224	0	144
139	7256	0	144
140	7832	0	144

