version 3
run General-209-20250904-14:13:18-15549
attr configname General
attr datetime 20250904-14:13:18
attr datetimef 20250904-141318
attr experiment General
attr inifile omnetpp.ini
attr iterationvars ""
attr iterationvarsd ""
attr iterationvarsf ""
attr measurement ""
attr network TaxiNetwork
attr processid 15549
attr repetition 209
attr replication #209
attr resultdir results
attr runnumber 209
attr seedset 209
config network TaxiNetwork
config seed-set 209
config num-rngs 1
config sim-time-limit 10s
config repeat 500
config *.numWalkers 1
config *.enableDuplication true
config *.rc 700
config **.node[0].xCor 2933
config **.node[0].yCor 2747
config **.node[1].xCor 2919
config **.node[1].yCor 2817
config **.node[2].xCor 2910
config **.node[2].yCor 2861
config **.node[3].xCor 2429
config **.node[3].yCor 2851
config **.node[4].xCor 2908
config **.node[4].yCor 2714
config **.node[5].xCor 2606
config **.node[5].yCor 2722
config **.node[6].xCor 2575
config **.node[6].yCor 2753
config **.node[7].xCor 2654
config **.node[7].yCor 2513
config **.node[8].xCor 2773
config **.node[8].yCor 2580
config **.node[9].xCor 3043
config **.node[9].yCor 2780
config **.node[10].xCor 3020
config **.node[10].yCor 2813
config **.node[11].xCor 2599
config **.node[11].yCor 2300
config **.node[12].xCor 2917
config **.node[12].yCor 2698
config **.node[13].xCor 2625
config **.node[13].yCor 2641
config **.node[14].xCor 2604
config **.node[14].yCor 2790
config **.node[15].xCor 2786
config **.node[15].yCor 3082
config **.node[16].xCor 2603
config **.node[16].yCor 2802
config **.node[17].xCor 2637
config **.node[17].yCor 2869
config **.node[18].xCor 2675
config **.node[18].yCor 2955
config **.node[19].xCor 2845
config **.node[19].yCor 2937
config **.node[20].xCor 2860
config **.node[20].yCor 2888
config **.node[21].xCor 2843
config **.node[21].yCor 4158
config **.node[22].xCor 2852
config **.node[22].yCor 4017
config **.node[23].xCor 2892
config **.node[23].yCor 4961
config **.node[24].xCor 2313
config **.node[24].yCor 3993
config **.node[25].xCor 2891
config **.node[25].yCor 4959
config **.node[26].xCor 2370
config **.node[26].yCor 4050
config **.node[27].xCor 2788
config **.node[27].yCor 3958
config **.node[28].xCor 2819
config **.node[28].yCor 4428
config **.node[29].xCor 2790
config **.node[29].yCor 3761
config **.node[30].xCor 2809
config **.node[30].yCor 2908
config **.node[31].xCor 2919
config **.node[31].yCor 3575
config **.node[32].xCor 2946
config **.node[32].yCor 3466
config **.node[33].xCor 2911
config **.node[33].yCor 3453
config **.node[34].xCor 2370
config **.node[34].yCor 3656
config **.node[35].xCor 2438
config **.node[35].yCor 3738
config **.node[36].xCor 2737
config **.node[36].yCor 3570
config **.node[37].xCor 2921
config **.node[37].yCor 3698
config **.node[38].xCor 2907
config **.node[38].yCor 5197
config **.node[39].xCor 2860
config **.node[39].yCor 3852
config **.node[40].xCor 2927
config **.node[40].yCor 3684
config **.node[41].xCor 3023
config **.node[41].yCor 5313
config **.node[42].xCor 3220
config **.node[42].yCor 5811
config **.node[43].xCor 3432
config **.node[43].yCor 5715
config **.node[44].xCor 2754
config **.node[44].yCor 2463
config **.node[45].xCor 2646
config **.node[45].yCor 2673
config **.node[46].xCor 3051
config **.node[46].yCor 2792
config **.node[47].xCor 1666
config **.node[47].yCor 3697
config **.node[48].xCor 1662
config **.node[48].yCor 3694
config **.node[49].xCor 1664
config **.node[49].yCor 3667
config **.node[50].xCor 1660
config **.node[50].yCor 3664
config **.node[51].xCor 1710
config **.node[51].yCor 3573
config **.node[52].xCor 2082
config **.node[52].yCor 2650
config **.node[53].xCor 2086
config **.node[53].yCor 2657
config **.node[54].xCor 2257
config **.node[54].yCor 3232
config **.node[55].xCor 2258
config **.node[55].yCor 3225
config **.node[56].xCor 1926
config **.node[56].yCor 2570
config **.node[57].xCor 1926
config **.node[57].yCor 2576
config **.node[58].xCor 2104
config **.node[58].yCor 1758
config **.node[59].xCor 1957
config **.node[59].yCor 1826
config **.node[60].xCor 3473
config **.node[60].yCor 1523
config **.node[61].xCor 3335
config **.node[61].yCor 1726
config **.node[62].xCor 3478
config **.node[62].yCor 1517
config **.node[63].xCor 3386
config **.node[63].yCor 2119
config **.node[64].xCor 3474
config **.node[64].yCor 1762
config **.node[65].xCor 3797
config **.node[65].yCor 2099
config **.node[66].xCor 3642
config **.node[66].yCor 2136
config **.node[67].xCor 3481
config **.node[67].yCor 2334
config **.node[68].xCor 3088
config **.node[68].yCor 1505
config **.node[69].xCor 3037
config **.node[69].yCor 1693
config **.node[70].xCor 3026
config **.node[70].yCor 1700
config **.node[71].xCor 3019
config **.node[71].yCor 669
config **.node[72].xCor 3513
config **.node[72].yCor 1358
config **.node[73].xCor 3545
config **.node[73].yCor 1230
config **.node[74].xCor 4228
config **.node[74].yCor 4220
config **.node[75].xCor 3379
config **.node[75].yCor 1207
config **.node[76].xCor 3596
config **.node[76].yCor 963
config **.node[77].xCor 3637
config **.node[77].yCor 1188
config **.node[78].xCor 3759
config **.node[78].yCor 1030
config **.node[79].xCor 2918
config **.node[79].yCor 1455
config **.node[80].xCor 2711
config **.node[80].yCor 1297
config **.node[81].xCor 439
config **.node[81].yCor 1623
config **.node[82].xCor 2857
config **.node[82].yCor 3581
config **.node[83].xCor 2858
config **.node[83].yCor 3584
config **.node[84].xCor 2999
config **.node[84].yCor 2636
config **.node[85].xCor 2905
config **.node[85].yCor 2778
config **.node[86].xCor 2653
config **.node[86].yCor 2845
config **.node[87].xCor 2864
config **.node[87].yCor 2836
config **.node[88].xCor 2426
config **.node[88].yCor 2892
config **.node[89].xCor 2964
config **.node[89].yCor 2804
config **.node[90].xCor 2586
config **.node[90].yCor 3135
config **.node[91].xCor 2864
config **.node[91].yCor 2980
config **.node[92].xCor 2527
config **.node[92].yCor 3219
config **.node[93].xCor 2863
config **.node[93].yCor 3142
config **.node[94].xCor 2485
config **.node[94].yCor 3269
config **.node[95].xCor 2653
config **.node[95].yCor 1065
config **.node[96].xCor 4062
config **.node[96].yCor 400
config **.node[97].xCor 5762
config **.node[97].yCor 3023
config **.node[98].xCor 1414
config **.node[98].yCor 3461
config **.node[99].xCor 2911
config **.node[99].yCor 1737
config **.node[100].xCor 2595
config **.node[100].yCor 2299
config **.node[101].xCor 2702
config **.node[101].yCor 3419
config **.node[102].xCor 2813
config **.node[102].yCor 3307
config **.node[103].xCor 2638
config **.node[103].yCor 2258
config **.node[104].xCor 2590
config **.node[104].yCor 3125
config **.node[105].xCor 1856
config **.node[105].yCor 2990
config **.node[106].xCor 1894
config **.node[106].yCor 2239
config **.node[107].xCor 383
config **.node[107].yCor 1251
config **.node[108].xCor 3447
config **.node[108].yCor 5489
config **.node[109].xCor 3450
config **.node[109].yCor 5697
config **.node[110].xCor 2719
config **.node[110].yCor 1920
config **.node[111].xCor 2085
config **.node[111].yCor 2389
config **.node[112].xCor 1910
config **.node[112].yCor 2548
config **.node[113].xCor 2069
config **.node[113].yCor 2050
config **.node[114].xCor 2184
config **.node[114].yCor 2209
config **.node[115].xCor 2278
config **.node[115].yCor 2390
config **.node[116].xCor 2249
config **.node[116].yCor 2299
config **.node[117].xCor 2356
config **.node[117].yCor 2303
config **.node[118].xCor 2192
config **.node[118].yCor 2475
config **.node[119].xCor 1720
config **.node[119].yCor 2911
config **.node[120].xCor 2400
config **.node[120].yCor 2887
config **.node[121].xCor 3344
config **.node[121].yCor 1890
config **.node[122].xCor 3136
config **.node[122].yCor 2418
config **.node[123].xCor 3243
config **.node[123].yCor 2525
config **.node[124].xCor 2396
config **.node[124].yCor 1267
config **.node[125].xCor 467
config **.node[125].yCor 1875
config **.node[126].xCor 3506
config **.node[126].yCor 1221
config **.node[127].xCor 1034
config **.node[127].yCor 1474
config **.node[128].xCor 2908
config **.node[128].yCor 1784
config **.node[129].xCor 2876
config **.node[129].yCor 1761
config **.node[130].xCor 2849
config **.node[130].yCor 1795
config **.node[131].xCor 3029
config **.node[131].yCor 1859
config **.node[132].xCor 2924
config **.node[132].yCor 1848
config **.node[133].xCor 3493
config **.node[133].yCor 1559
config **.node[134].xCor 2760
config **.node[134].yCor 1761
config **.node[135].xCor 1644
config **.node[135].yCor 3755
config **.node[136].xCor 1463
config **.node[136].yCor 3432
config **.node[137].xCor 2595
config **.node[137].yCor 2849
config **.node[138].xCor 2581
config **.node[138].yCor 2867
config **.node[139].xCor 2524
config **.node[139].yCor 2911
config **.node[140].xCor 2570
config **.node[140].yCor 2924
config **.node[141].xCor 2676
config **.node[141].yCor 2890
config **.node[142].xCor 2666
config **.node[142].yCor 2876
config **.node[143].xCor 3735
config **.node[143].yCor 1726
config **.node[144].xCor 1637
config **.node[144].yCor 3438

vector 0 TaxiNetwork.node[88] visitedPerTimestep ETV
vector 1 TaxiNetwork.node[112] visitedPerTimestep ETV
vector 2 TaxiNetwork.node[6] visitedPerTimestep ETV
vector 3 TaxiNetwork.node[8] visitedPerTimestep ETV
vector 4 TaxiNetwork.node[116] visitedPerTimestep ETV
vector 5 TaxiNetwork.node[120] visitedPerTimestep ETV
vector 6 TaxiNetwork.node[103] visitedPerTimestep ETV
vector 7 TaxiNetwork.node[17] visitedPerTimestep ETV
vector 8 TaxiNetwork.node[86] visitedPerTimestep ETV
vector 9 TaxiNetwork.node[9] visitedPerTimestep ETV
vector 10 TaxiNetwork.node[85] visitedPerTimestep ETV
vector 11 TaxiNetwork.node[142] visitedPerTimestep ETV
vector 12 TaxiNetwork.node[13] visitedPerTimestep ETV
vector 13 TaxiNetwork.node[90] visitedPerTimestep ETV
vector 14 TaxiNetwork.node[3] visitedPerTimestep ETV
vector 15 TaxiNetwork.node[57] visitedPerTimestep ETV
vector 16 TaxiNetwork.node[56] visitedPerTimestep ETV
vector 17 TaxiNetwork.node[106] visitedPerTimestep ETV
vector 18 TaxiNetwork.node[111] visitedPerTimestep ETV
vector 19 TaxiNetwork.node[5] visitedPerTimestep ETV
vector 20 TaxiNetwork.node[54] visitedPerTimestep ETV
vector 21 TaxiNetwork.node[83] visitedPerTimestep ETV
vector 22 TaxiNetwork.node[26] visitedPerTimestep ETV
vector 23 TaxiNetwork.node[24] visitedPerTimestep ETV
vector 24 TaxiNetwork.node[27] visitedPerTimestep ETV
vector 25 TaxiNetwork.node[31] visitedPerTimestep ETV
vector 26 TaxiNetwork.node[94] visitedPerTimestep ETV
vector 27 TaxiNetwork.node[36] visitedPerTimestep ETV
vector 28 TaxiNetwork.node[91] visitedPerTimestep ETV
vector 29 TaxiNetwork.node[7] visitedPerTimestep ETV
vector 30 TaxiNetwork.node[105] visitedPerTimestep ETV
vector 31 TaxiNetwork.node[51] visitedPerTimestep ETV
vector 32 TaxiNetwork.node[139] visitedPerTimestep ETV
vector 33 TaxiNetwork.node[12] visitedPerTimestep ETV
vector 34 TaxiNetwork.node[16] visitedPerTimestep ETV
vector 35 TaxiNetwork.node[141] visitedPerTimestep ETV
vector 36 TaxiNetwork.node[45] visitedPerTimestep ETV
vector 37 TaxiNetwork.node[53] visitedPerTimestep ETV
vector 38 TaxiNetwork.node[44] visitedPerTimestep ETV
vector 39 TaxiNetwork.node[20] visitedPerTimestep ETV
vector 40 TaxiNetwork.node[87] visitedPerTimestep ETV
vector 41 TaxiNetwork.node[122] visitedPerTimestep ETV
vector 42 TaxiNetwork.node[89] visitedPerTimestep ETV
vector 43 TaxiNetwork.node[2] visitedPerTimestep ETV
vector 44 TaxiNetwork.node[104] visitedPerTimestep ETV
vector 45 TaxiNetwork.node[140] visitedPerTimestep ETV
vector 46 TaxiNetwork.node[136] visitedPerTimestep ETV
vector 47 TaxiNetwork.node[50] visitedPerTimestep ETV
vector 48 TaxiNetwork.node[55] visitedPerTimestep ETV
vector 49 TaxiNetwork.node[138] visitedPerTimestep ETV
vector 50 TaxiNetwork.node[93] visitedPerTimestep ETV
vector 51 TaxiNetwork.node[117] visitedPerTimestep ETV
vector 52 TaxiNetwork.node[15] visitedPerTimestep ETV
vector 53 TaxiNetwork.node[0] visitedPerTimestep ETV
vector 54 TaxiNetwork.node[92] visitedPerTimestep ETV
vector 55 TaxiNetwork.node[18] visitedPerTimestep ETV
vector 56 TaxiNetwork.node[115] visitedPerTimestep ETV
vector 57 TaxiNetwork.node[11] visitedPerTimestep ETV
vector 58 TaxiNetwork.node[82] visitedPerTimestep ETV
vector 59 TaxiNetwork.node[144] visitedPerTimestep ETV
vector 60 TaxiNetwork.node[34] visitedPerTimestep ETV
vector 61 TaxiNetwork.node[21] visitedPerTimestep ETV
vector 62 TaxiNetwork.node[28] visitedPerTimestep ETV
vector 63 TaxiNetwork.node[30] visitedPerTimestep ETV
vector 64 TaxiNetwork.node[102] visitedPerTimestep ETV
vector 65 TaxiNetwork.node[37] visitedPerTimestep ETV
vector 66 TaxiNetwork.node[101] visitedPerTimestep ETV
vector 67 TaxiNetwork.node[137] visitedPerTimestep ETV
vector 68 TaxiNetwork.node[74] visitedPerTimestep ETV
vector 69 TaxiNetwork.node[108] visitedPerTimestep ETV
vector 70 TaxiNetwork.node[42] visitedPerTimestep ETV
vector 71 TaxiNetwork.node[41] visitedPerTimestep ETV
vector 72 TaxiNetwork.node[38] visitedPerTimestep ETV
vector 73 TaxiNetwork.node[43] visitedPerTimestep ETV
vector 74 TaxiNetwork.node[109] visitedPerTimestep ETV
vector 75 TaxiNetwork.node[19] visitedPerTimestep ETV
vector 76 TaxiNetwork.node[4] visitedPerTimestep ETV
vector 77 TaxiNetwork.node[33] visitedPerTimestep ETV
vector 78 TaxiNetwork.node[118] visitedPerTimestep ETV
vector 79 TaxiNetwork.node[10] visitedPerTimestep ETV
vector 80 TaxiNetwork.node[40] visitedPerTimestep ETV
vector 81 TaxiNetwork.node[35] visitedPerTimestep ETV
vector 82 TaxiNetwork.node[23] visitedPerTimestep ETV
vector 83 TaxiNetwork.node[25] visitedPerTimestep ETV
vector 84 TaxiNetwork.node[52] visitedPerTimestep ETV
vector 85 TaxiNetwork.node[132] visitedPerTimestep ETV
vector 86 TaxiNetwork.node[62] visitedPerTimestep ETV
vector 87 TaxiNetwork.node[130] visitedPerTimestep ETV
vector 88 TaxiNetwork.node[133] visitedPerTimestep ETV
vector 89 TaxiNetwork.node[131] visitedPerTimestep ETV
vector 90 TaxiNetwork.node[114] visitedPerTimestep ETV
vector 91 TaxiNetwork.node[100] visitedPerTimestep ETV
vector 92 TaxiNetwork.node[84] visitedPerTimestep ETV
vector 93 TaxiNetwork.node[32] visitedPerTimestep ETV
vector 94 TaxiNetwork.node[1] visitedPerTimestep ETV
vector 95 TaxiNetwork.node[134] visitedPerTimestep ETV
vector 96 TaxiNetwork.node[68] visitedPerTimestep ETV
vector 97 TaxiNetwork.node[121] visitedPerTimestep ETV
vector 98 TaxiNetwork.node[70] visitedPerTimestep ETV
vector 99 TaxiNetwork.node[128] visitedPerTimestep ETV
vector 100 TaxiNetwork.node[80] visitedPerTimestep ETV
vector 101 TaxiNetwork.node[79] visitedPerTimestep ETV
vector 102 TaxiNetwork.node[69] visitedPerTimestep ETV
vector 103 TaxiNetwork.node[99] visitedPerTimestep ETV
vector 104 TaxiNetwork.node[63] visitedPerTimestep ETV
vector 105 TaxiNetwork.node[123] visitedPerTimestep ETV
vector 106 TaxiNetwork.node[14] visitedPerTimestep ETV
vector 107 TaxiNetwork.node[46] visitedPerTimestep ETV
vector 108 TaxiNetwork.node[29] visitedPerTimestep ETV
vector 109 TaxiNetwork.node[67] visitedPerTimestep ETV
vector 110 TaxiNetwork.node[60] visitedPerTimestep ETV
vector 111 TaxiNetwork.node[65] visitedPerTimestep ETV
vector 112 TaxiNetwork.node[143] visitedPerTimestep ETV
vector 113 TaxiNetwork.node[66] visitedPerTimestep ETV
vector 114 TaxiNetwork.node[61] visitedPerTimestep ETV
vector 115 TaxiNetwork.node[72] visitedPerTimestep ETV
vector 116 TaxiNetwork.node[110] visitedPerTimestep ETV
vector 117 TaxiNetwork.node[119] visitedPerTimestep ETV
vector 118 TaxiNetwork.node[39] visitedPerTimestep ETV
vector 119 TaxiNetwork.node[76] visitedPerTimestep ETV
vector 120 TaxiNetwork.node[75] visitedPerTimestep ETV
vector 121 TaxiNetwork.node[58] visitedPerTimestep ETV
vector 122 TaxiNetwork.node[129] visitedPerTimestep ETV
vector 123 TaxiNetwork.node[126] visitedPerTimestep ETV
vector 124 TaxiNetwork.node[73] visitedPerTimestep ETV
vector 125 TaxiNetwork.node[77] visitedPerTimestep ETV
vector 126 TaxiNetwork.node[64] visitedPerTimestep ETV
vector 127 TaxiNetwork.node[113] visitedPerTimestep ETV
vector 128 TaxiNetwork.node[124] visitedPerTimestep ETV
vector 129 TaxiNetwork.node[22] visitedPerTimestep ETV
vector 130 TaxiNetwork.node[59] visitedPerTimestep ETV
vector 131 TaxiNetwork.node[78] visitedPerTimestep ETV
vector 132 TaxiNetwork.node[97] visitedPerTimestep ETV
vector 133 TaxiNetwork.node[127] visitedPerTimestep ETV
vector 134 TaxiNetwork.node[98] visitedPerTimestep ETV
0	1	0	1
0	74	0	50
0	76	0	51
0	102	0	59
0	173	0	79
0	212	0	85
0	247	0	92
0	383	0	107
0	615	0	119
0	756	0	128
0	811	0	128
0	832	0	128
0	901	0	129
0	908	0	129
0	1640	0	133
0	1816	0	133
0	2000	0	133
0	2092	0	133
0	2130	0	133
0	2160	0	133
0	2192	0	133
0	2196	0	133
0	2202	0	133
0	2238	0	133
0	2276	0	133
0	2544	0	134
0	2564	0	134
0	2638	0	134
0	2896	0	135
0	2904	0	135
0	2984	0	135
0	3020	0	135
0	3144	0	135
0	4508	0	140
0	4652	0	140
0	5368	0	140
0	5960	0	140
0	7120	0	143
0	7504	0	143
0	7864	0	143
0	7984	0	143
0	8112	0	143
0	8384	0	143
0	8808	0	143
0	9008	0	143
0	9056	0	143
0	9080	0	143
0	9392	0	144
0	11088	0	144
0	12264	0	144
0	12376	0	144
1	2	0	2
1	570	0	118
1	1510	0	133
1	1620	0	133
1	1846	0	133
1	2208	0	133
1	2252	0	133
1	2286	0	133
1	2536	0	134
1	2866	0	135
1	4504	0	140
1	4820	0	140
1	5028	0	140
1	9320	0	144
1	9920	0	144
1	11576	0	144
2	3	0	3
2	104	0	59
2	217	0	85
2	238	0	91
2	406	0	108
2	452	0	109
2	518	0	118
2	579	0	118
2	625	0	119
2	925	0	129
2	1042	0	131
2	1118	0	131
2	1150	0	131
2	1316	0	133
2	1436	0	133
2	1508	0	133
2	1524	0	133
2	1536	0	133
2	1726	0	133
2	1760	0	133
2	1820	0	133
2	1830	0	133
2	1868	0	133
2	2064	0	133
2	2306	0	133
2	2376	0	133
2	2508	0	134
2	2562	0	134
2	2728	0	135
2	2810	0	135
2	2824	0	135
2	2994	0	135
2	3628	0	136
2	4092	0	140
2	4344	0	140
2	4380	0	140
2	4396	0	140
2	4408	0	140
2	4436	0	140
2	5040	0	140
2	5100	0	140
2	5356	0	140
2	5456	0	140
2	5604	0	140
2	7520	0	143
2	7680	0	143
2	7720	0	143
2	8064	0	143
2	9000	0	143
2	9088	0	143
2	9400	0	144
2	10208	0	144
2	11168	0	144
2	12416	0	144
3	4	0	4
3	39	0	33
3	83	0	52
3	121	0	64
3	159	0	77
3	166	0	78
3	363	0	105
3	449	0	109
3	476	0	117
3	512	0	118
3	524	0	118
3	573	0	118
3	685	0	127
3	758	0	128
3	760	0	128
3	806	0	128
3	945	0	129
3	947	0	129
3	949	0	129
3	1136	0	131
3	1274	0	131
3	1306	0	133
3	1310	0	133
3	1330	0	133
3	1504	0	133
3	1904	0	133
3	2068	0	133
3	2460	0	134
3	2582	0	134
3	2788	0	135
3	2914	0	135
3	3088	0	135
3	3100	0	135
3	3524	0	136
3	3956	0	140
3	4468	0	140
3	4492	0	140
3	4964	0	140
3	5080	0	140
3	6528	0	143
3	8104	0	143
3	8128	0	143
3	9648	0	144
3	10304	0	144
3	11144	0	144
3	11480	0	144
3	11712	0	144
4	5	0	5
4	95	0	57
4	521	0	118
4	534	0	118
4	558	0	118
4	602	0	119
4	627	0	119
4	1240	0	131
4	1522	0	133
4	1854	0	133
4	2200	0	133
4	2492	0	134
4	3736	0	136
4	4212	0	140
4	4316	0	140
4	4332	0	140
4	4808	0	140
4	5284	0	140
4	6436	0	142
4	6444	0	143
4	6832	0	143
4	8256	0	143
4	11176	0	144
4	12248	0	144
5	6	0	6
5	60	0	45
5	80	0	52
5	118	0	64
5	278	0	95
5	316	0	105
5	408	0	108
5	486	0	117
5	601	0	119
5	736	0	128
5	837	0	128
5	1100	0	131
5	1242	0	131
5	1542	0	133
5	1756	0	133
5	1794	0	133
5	2128	0	133
5	2194	0	133
5	2210	0	133
5	2234	0	133
5	2284	0	133
5	2404	0	133
5	2808	0	135
5	2820	0	135
5	3528	0	136
5	3632	0	136
5	4284	0	140
5	4336	0	140
5	4712	0	140
5	4816	0	140
5	5236	0	140
5	5516	0	140
5	5528	0	140
5	6428	0	140
5	6492	0	143
5	7000	0	143
5	9296	0	144
5	9912	0	144
5	10264	0	144
5	10664	0	144
5	11024	0	144
5	11584	0	144
6	7	0	7
6	218	0	85
6	251	0	93
6	256	0	93
6	730	0	128
6	838	0	128
6	888	0	129
6	1052	0	131
6	1080	0	131
6	1164	0	131
6	1208	0	131
6	1366	0	133
6	1470	0	133
6	1482	0	133
6	1540	0	133
6	1662	0	133
6	1740	0	133
6	1860	0	133
6	1866	0	133
6	1912	0	133
6	2356	0	133
6	2374	0	133
6	2410	0	133
6	2442	0	134
6	2466	0	134
6	2542	0	134
6	2722	0	135
6	2892	0	135
6	3364	0	135
6	3512	0	136
6	3760	0	136
6	4448	0	140
6	4740	0	140
6	4828	0	140
6	5120	0	140
6	5524	0	140
6	5568	0	140
6	6344	0	140
6	6388	0	140
6	6460	0	143
6	6608	0	143
6	6984	0	143
6	7024	0	143
6	7392	0	143
6	10104	0	144
6	10600	0	144
6	11040	0	144
7	8	0	8
7	38	0	33
7	175	0	80
7	360	0	105
7	366	0	105
7	416	0	108
7	447	0	109
7	531	0	118
7	621	0	119
7	729	0	128
7	747	0	128
7	766	0	128
7	846	0	128
7	1000	0	130
7	1046	0	131
7	1096	0	131
7	1130	0	131
7	1284	0	132
7	1582	0	133
7	1754	0	133
7	2082	0	133
7	2132	0	133
7	2228	0	133
7	2484	0	134
7	2520	0	134
7	2790	0	135
7	2806	0	135
7	2974	0	135
7	3052	0	135
7	3520	0	136
7	3708	0	136
7	3764	0	136
7	3792	0	138
7	4188	0	140
7	4216	0	140
7	4340	0	140
7	4400	0	140
7	4480	0	140
7	5372	0	140
7	5416	0	140
7	5632	0	140
7	6244	0	140
7	6288	0	140
7	6564	0	143
7	6772	0	143
7	6844	0	143
7	6924	0	143
7	7744	0	143
7	7944	0	143
7	8328	0	143
7	9048	0	143
7	10000	0	144
7	10824	0	144
7	11640	0	144
7	11944	0	144
7	12352	0	144
8	9	0	9
8	82	0	52
8	97	0	58
8	323	0	105
8	538	0	118
8	606	0	119
8	696	0	127
8	734	0	128
8	748	0	128
8	950	0	129
8	1040	0	131
8	1210	0	131
8	1364	0	133
8	1430	0	133
8	1476	0	133
8	1486	0	133
8	1644	0	133
8	1666	0	133
8	1882	0	133
8	1990	0	133
8	2126	0	133
8	2240	0	133
8	2292	0	133
8	2362	0	133
8	2576	0	134
8	2692	0	134
8	2812	0	135
8	3568	0	136
8	3700	0	136
8	3824	0	140
8	3916	0	140
8	3980	0	140
8	4476	0	140
8	5188	0	140
8	5676	0	140
8	5868	0	140
8	6412	0	140
8	7552	0	143
8	8600	0	143
8	11208	0	144
8	12056	0	144
9	10	0	10
9	51	0	41
9	54	0	43
9	81	0	52
9	86	0	54
9	167	0	78
9	205	0	84
9	291	0	95
9	296	0	95
9	319	0	105
9	362	0	105
9	484	0	117
9	489	0	117
9	770	0	128
9	809	0	128
9	833	0	128
9	841	0	128
9	956	0	129
9	1212	0	131
9	1268	0	131
9	1298	0	132
9	1324	0	133
9	1394	0	133
9	1468	0	133
9	1910	0	133
9	2090	0	133
9	2512	0	134
9	2908	0	135
9	3152	0	135
9	3728	0	136
9	4136	0	140
9	4156	0	140
9	4420	0	140
9	5312	0	140
9	5376	0	140
9	5432	0	140
9	5452	0	140
9	5704	0	140
9	5924	0	140
9	6588	0	143
9	7664	0	143
9	8288	0	143
9	9840	0	144
9	10808	0	144
9	11080	0	144
9	11320	0	144
9	11776	0	144
9	11848	0	144
10	11	0	11
10	73	0	50
10	273	0	95
10	575	0	118
10	678	0	127
10	836	0	128
10	958	0	129
10	1140	0	131
10	1154	0	131
10	1382	0	133
10	1408	0	133
10	1560	0	133
10	1684	0	133
10	2004	0	133
10	2118	0	133
10	2230	0	133
10	2546	0	134
10	3552	0	136
10	3564	0	136
10	3788	0	138
10	4308	0	140
10	4376	0	140
10	4392	0	140
10	4736	0	140
10	4788	0	140
10	5264	0	140
10	5908	0	140
10	5976	0	140
10	6920	0	143
10	7672	0	143
10	8344	0	143
10	8744	0	143
10	8824	0	143
10	10416	0	144
10	10544	0	144
10	10608	0	144
10	11608	0	144
10	11696	0	144
10	11736	0	144
10	11840	0	144
11	12	0	12
11	226	0	90
11	275	0	95
11	295	0	95
11	315	0	105
11	387	0	107
11	564	0	118
11	592	0	118
11	620	0	119
11	768	0	128
11	919	0	129
11	1138	0	131
11	1502	0	133
11	1736	0	133
11	1742	0	133
11	1838	0	133
11	1842	0	133
11	1880	0	133
11	2188	0	133
11	2278	0	133
11	2340	0	133
11	2388	0	133
11	2702	0	134
11	2706	0	134
11	3680	0	136
11	3840	0	140
11	4664	0	140
11	5272	0	140
11	5536	0	140
11	5544	0	140
11	5912	0	140
11	6592	0	143
11	7840	0	143
11	8784	0	143
11	9608	0	144
11	10536	0	144
11	10720	0	144
11	11008	0	144
11	11160	0	144
11	11248	0	144
11	11632	0	144
11	11656	0	144
12	13	0	13
12	43	0	36
12	227	0	90
12	334	0	105
12	384	0	107
12	511	0	118
12	540	0	118
12	545	0	118
12	693	0	127
12	851	0	128
12	1018	0	130
12	1104	0	131
12	1110	0	131
12	1238	0	131
12	1246	0	131
12	1386	0	133
12	1450	0	133
12	1588	0	133
12	1856	0	133
12	1870	0	133
12	1936	0	133
12	1984	0	133
12	2164	0	133
12	2180	0	133
12	2446	0	134
12	2620	0	134
12	2670	0	134
12	2740	0	135
12	2906	0	135
12	3532	0	136
12	3576	0	136
12	3640	0	136
12	3740	0	136
12	3756	0	136
12	4184	0	140
12	4204	0	140
12	4312	0	140
12	4464	0	140
12	5232	0	140
12	5300	0	140
12	5344	0	140
12	5532	0	140
12	5624	0	140
12	5672	0	140
12	6788	0	143
12	6864	0	143
12	6884	0	143
12	7528	0	143
12	7712	0	143
12	7968	0	143
12	8056	0	143
12	9872	0	144
12	9936	0	144
12	10152	0	144
12	10448	0	144
12	10616	0	144
12	11056	0	144
12	11112	0	144
12	11624	0	144
12	12160	0	144
12	12360	0	144
13	14	0	14
13	46	0	38
13	279	0	95
13	350	0	105
13	356	0	105
13	423	0	108
13	436	0	109
13	681	0	127
13	703	0	127
13	707	0	127
13	763	0	128
13	771	0	128
13	783	0	128
13	944	0	129
13	1044	0	131
13	1496	0	133
13	1528	0	133
13	1550	0	133
13	1556	0	133
13	1700	0	133
13	2106	0	133
13	2522	0	134
13	2526	0	134
13	2694	0	134
13	3040	0	135
13	3076	0	135
13	3268	0	135
13	4264	0	140
13	4360	0	140
13	4512	0	140
13	5260	0	140
13	5504	0	140
13	6228	0	140
13	6524	0	143
13	8480	0	143
13	8576	0	143
13	9760	0	144
13	9808	0	144
13	10240	0	144
13	11288	0	144
13	11680	0	144
13	11792	0	144
13	11888	0	144
13	11904	0	144
13	11920	0	144
13	12176	0	144
13	12440	0	144
14	15	0	15
14	32	0	30
14	203	0	84
14	210	0	85
14	234	0	90
14	237	0	91
14	257	0	93
14	264	0	93
14	388	0	107
14	403	0	107
14	444	0	109
14	477	0	117
14	485	0	117
14	535	0	118
14	552	0	118
14	565	0	118
14	628	0	119
14	714	0	128
14	814	0	128
14	820	0	128
14	1020	0	130
14	1026	0	131
14	1162	0	131
14	1294	0	132
14	1424	0	133
14	1512	0	133
14	1630	0	133
14	1734	0	133
14	1808	0	133
14	2204	0	133
14	2250	0	133
14	2372	0	133
14	2480	0	134
14	2538	0	134
14	2624	0	134
14	2676	0	134
14	2686	0	134
14	2778	0	135
14	2834	0	135
14	3156	0	135
14	3288	0	135
14	3332	0	135
14	3580	0	136
14	3896	0	140
14	4296	0	140
14	4304	0	140
14	4356	0	140
14	4440	0	140
14	4520	0	140
14	4564	0	140
14	4656	0	140
14	4720	0	140
14	4972	0	140
14	5380	0	140
14	6536	0	143
14	6888	0	143
14	6928	0	143
14	7880	0	143
14	8760	0	143
14	9312	0	144
14	9928	0	144
14	11000	0	144
14	11528	0	144
14	12240	0	144
14	12312	0	144
15	16	0	16
15	690	0	127
15	1614	0	133
15	1618	0	133
15	2206	0	133
15	2318	0	133
15	2378	0	133
15	3804	0	140
15	4804	0	140
15	5364	0	140
15	6432	0	141
15	6540	0	143
15	6892	0	143
15	8464	0	143
15	12272	0	144
16	17	0	17
16	79	0	52
16	106	0	59
16	519	0	118
16	567	0	118
16	569	0	118
16	909	0	129
16	928	0	129
16	1626	0	133
16	2198	0	133
16	2308	0	133
16	2382	0	133
16	2634	0	134
16	4176	0	140
16	4532	0	140
16	5596	0	140
16	7512	0	143
16	8392	0	143
16	8432	0	143
16	11536	0	144
17	18	0	18
17	170	0	79
17	824	0	128
17	930	0	129
17	1616	0	133
17	1624	0	133
17	1720	0	133
17	1916	0	133
17	1920	0	133
17	1928	0	133
17	2316	0	133
17	2630	0	134
17	2868	0	135
17	4500	0	140
17	4672	0	140
17	6828	0	143
17	6900	0	143
17	8408	0	143
18	19	0	19
18	105	0	59
18	171	0	79
18	207	0	84
18	236	0	91
18	493	0	118
18	688	0	127
18	732	0	128
18	902	0	129
18	1248	0	131
18	1632	0	133
18	1638	0	133
18	1758	0	133
18	1792	0	133
18	1806	0	133
18	1848	0	133
18	1986	0	133
18	2182	0	133
18	2320	0	133
18	2380	0	133
18	3888	0	140
18	4528	0	140
18	4536	0	140
18	4676	0	140
18	4984	0	140
18	7016	0	143
18	8448	0	143
18	9352	0	144
18	12288	0	144
19	20	0	20
19	61	0	45
19	91	0	57
19	101	0	59
19	122	0	64
19	153	0	76
19	314	0	105
19	359	0	105
19	439	0	109
19	495	0	118
19	504	0	118
19	532	0	118
19	566	0	118
19	607	0	119
19	910	0	129
19	1016	0	130
19	1030	0	131
19	1072	0	131
19	1078	0	131
19	1090	0	131
19	1126	0	131
19	1356	0	133
19	1544	0	133
19	1590	0	133
19	1680	0	133
19	1934	0	133
19	1998	0	133
19	2074	0	133
19	2080	0	133
19	2290	0	133
19	2516	0	134
19	2572	0	134
19	2640	0	134
19	2980	0	135
19	3136	0	135
19	3176	0	135
19	3732	0	136
19	3972	0	140
19	4144	0	140
19	4172	0	140
19	4288	0	140
19	4320	0	140
19	4404	0	140
19	5520	0	140
19	5932	0	140
19	6400	0	140
19	6448	0	143
19	6464	0	143
19	6532	0	143
19	6776	0	143
19	6912	0	143
19	6932	0	143
19	6988	0	143
19	7848	0	143
19	8192	0	143
19	8264	0	143
19	9096	0	143
19	9568	0	144
19	10064	0	144
19	10256	0	144
19	10336	0	144
19	10736	0	144
19	11104	0	144
19	12392	0	144
20	21	0	21
20	29	0	28
20	35	0	32
20	152	0	76
20	177	0	80
20	258	0	93
20	267	0	93
20	331	0	105
20	515	0	118
20	799	0	128
20	905	0	129
20	926	0	129
20	1362	0	133
20	2216	0	133
20	2282	0	133
20	2574	0	134
20	2862	0	135
20	3056	0	135
20	3108	0	135
20	3160	0	135
20	3620	0	136
20	3772	0	136
20	3876	0	140
20	4364	0	140
20	4632	0	140
20	4976	0	140
20	5328	0	140
20	5468	0	140
20	6260	0	140
20	6820	0	143
20	6856	0	143
20	6868	0	143
20	7760	0	143
20	8240	0	143
20	9120	0	143
20	9152	0	143
20	9464	0	144
20	10272	0	144
20	10288	0	144
20	10752	0	144
20	11560	0	144
20	11936	0	144
20	12008	0	144
20	12456	0	144
21	22	0	22
21	241	0	91
21	259	0	93
21	268	0	93
21	346	0	105
21	508	0	118
21	577	0	118
21	779	0	128
21	782	0	128
21	1216	0	131
21	1390	0	133
21	1530	0	133
21	1970	0	133
21	2156	0	133
21	2748	0	135
21	2756	0	135
21	2852	0	135
21	3120	0	135
21	3128	0	135
21	3852	0	140
21	5248	0	140
21	6360	0	140
21	7592	0	143
21	8152	0	143
21	8976	0	143
21	9208	0	143
21	9488	0	144
21	9504	0	144
22	23	0	23
22	183	0	82
22	343	0	105
22	391	0	107
22	428	0	109
22	778	0	128
22	803	0	128
22	1950	0	133
22	1954	0	133
22	2334	0	133
22	2750	0	135
22	3864	0	140
22	5480	0	140
22	9216	0	143
23	24	0	24
23	392	0	107
23	964	0	129
23	1952	0	133
23	1960	0	133
23	2850	0	135
23	3868	0	140
23	6312	0	140
23	9520	0	144
23	10784	0	144
23	10944	0	144
23	11272	0	144
24	25	0	25
24	113	0	63
24	181	0	81
24	434	0	109
24	673	0	127
24	780	0	128
24	802	0	128
24	1944	0	133
24	1964	0	133
24	2142	0	133
24	2336	0	133
24	3856	0	140
24	6328	0	140
24	7808	0	143
24	10960	0	144
24	12496	0	144
24	12528	0	144
25	26	0	26
25	114	0	63
25	162	0	77
25	232	0	90
25	380	0	107
25	762	0	128
25	793	0	128
25	796	0	128
25	1258	0	131
25	1262	0	131
25	1746	0	133
25	1782	0	133
25	1966	0	133
25	2650	0	134
25	2838	0	135
25	2882	0	135
25	3588	0	136
25	3988	0	140
25	6300	0	140
25	7056	0	143
25	8864	0	143
25	9240	0	143
25	9672	0	144
25	10568	0	144
25	10896	0	144
25	10912	0	144
25	11760	0	144
25	12184	0	144
25	12488	0	144
26	27	0	27
26	37	0	33
26	179	0	80
26	231	0	90
26	245	0	92
26	328	0	105
26	352	0	105
26	367	0	105
26	385	0	107
26	389	0	107
26	396	0	107
26	410	0	108
26	420	0	108
26	676	0	127
26	694	0	127
26	751	0	128
26	940	0	129
26	1106	0	131
26	1676	0	133
26	2138	0	133
26	2530	0	134
26	2656	0	134
26	2696	0	134
26	2742	0	135
26	2754	0	135
26	3612	0	136
26	4052	0	140
26	4100	0	140
26	4568	0	140
26	4588	0	140
26	5244	0	140
26	5252	0	140
26	5852	0	140
26	7136	0	143
26	7640	0	143
26	9384	0	144
26	9472	0	144
26	10928	0	144
26	12448	0	144
27	28	0	28
27	161	0	77
27	286	0	95
27	330	0	105
27	339	0	105
27	344	0	105
27	435	0	109
27	804	0	128
27	971	0	130
27	1690	0	133
27	1744	0	133
27	1772	0	133
27	2528	0	134
27	2590	0	134
27	2844	0	135
27	3072	0	135
27	3848	0	140
27	4032	0	140
27	5656	0	140
27	6324	0	140
27	6500	0	143
27	7792	0	143
27	8312	0	143
27	9160	0	143
27	9512	0	144
27	10576	0	144
27	10768	0	144
27	10792	0	144
27	10880	0	144
27	12192	0	144
28	30	0	29
28	49	0	40
28	124	0	64
28	148	0	75
28	239	0	91
28	340	0	105
28	371	0	106
28	412	0	108
28	536	0	118
28	611	0	119
28	805	0	128
28	951	0	129
28	1032	0	131
28	1116	0	131
28	1124	0	131
28	1200	0	131
28	1534	0	133
28	1708	0	133
28	2108	0	133
28	2330	0	133
28	2652	0	134
28	2910	0	135
28	3084	0	135
28	3104	0	135
28	3284	0	135
28	3672	0	136
28	3948	0	140
28	4020	0	140
28	4796	0	140
28	5048	0	140
28	5060	0	140
28	5156	0	140
28	5184	0	140
28	5324	0	140
28	5420	0	140
28	5964	0	140
28	7560	0	143
28	8728	0	143
28	8792	0	143
28	9072	0	143
28	9680	0	144
28	10552	0	144
28	12328	0	144
29	31	0	30
29	62	0	45
29	89	0	56
29	94	0	57
29	154	0	76
29	255	0	93
29	283	0	95
29	399	0	107
29	417	0	108
29	499	0	118
29	710	0	127
29	717	0	128
29	819	0	128
29	845	0	128
29	855	0	128
29	1060	0	131
29	1094	0	131
29	1206	0	131
29	1400	0	133
29	1466	0	133
29	1810	0	133
29	2458	0	134
29	2540	0	134
29	2600	0	134
29	2872	0	135
29	2898	0	135
29	3344	0	135
29	3908	0	140
29	4000	0	140
29	4988	0	140
29	5116	0	140
29	5124	0	140
29	5436	0	140
29	5460	0	140
29	6392	0	140
29	6580	0	143
29	6880	0	143
29	7728	0	143
29	8048	0	143
29	8080	0	143
29	8200	0	143
29	8504	0	143
29	8584	0	143
29	9704	0	144
29	9952	0	144
29	11016	0	144
29	11416	0	144
29	12024	0	144
30	33	0	31
30	66	0	46
30	107	0	59
30	409	0	108
30	568	0	118
30	927	0	129
30	2636	0	134
30	4680	0	140
30	5856	0	140
30	7992	0	143
30	8216	0	143
30	8232	0	143
31	34	0	32
31	69	0	48
31	109	0	60
31	9128	0	143
31	9144	0	143
32	36	0	33
32	56	0	44
32	65	0	46
32	93	0	57
32	149	0	75
32	209	0	85
32	280	0	95
32	332	0	105
32	446	0	109
32	451	0	109
32	520	0	118
32	528	0	118
32	551	0	118
32	670	0	127
32	835	0	128
32	913	0	129
32	946	0	129
32	955	0	129
32	1002	0	130
32	1128	0	131
32	1148	0	131
32	1250	0	131
32	1300	0	132
32	1368	0	133
32	1518	0	133
32	1558	0	133
32	1612	0	133
32	1650	0	133
32	1862	0	133
32	2168	0	133
32	2218	0	133
32	2298	0	133
32	2322	0	133
32	2348	0	133
32	2490	0	134
32	2506	0	134
32	2802	0	135
32	2858	0	135
32	2888	0	135
32	3264	0	135
32	3272	0	135
32	3816	0	140
32	4260	0	140
32	4716	0	140
32	4800	0	140
32	5228	0	140
32	5240	0	140
32	5280	0	140
32	5308	0	140
32	5860	0	140
32	5892	0	140
32	6376	0	140
32	7784	0	143
32	8008	0	143
32	8320	0	143
32	8888	0	143
32	9360	0	144
32	9592	0	144
32	9992	0	144
32	10384	0	144
32	11152	0	144
32	11184	0	144
32	11544	0	144
32	11968	0	144
33	40	0	34
33	64	0	46
33	265	0	93
33	281	0	95
33	441	0	109
33	608	0	119
33	759	0	128
33	917	0	129
33	942	0	129
33	999	0	130
33	1220	0	131
33	1304	0	133
33	1438	0	133
33	1494	0	133
33	1604	0	133
33	1818	0	133
33	2190	0	133
33	2260	0	133
33	2266	0	133
33	2394	0	133
33	2482	0	134
33	2668	0	134
33	2734	0	135
33	3184	0	135
33	3304	0	135
33	3704	0	136
33	4200	0	140
33	4232	0	140
33	5012	0	140
33	5424	0	140
33	8520	0	143
33	8560	0	143
33	8736	0	143
33	9688	0	144
33	9888	0	144
33	10160	0	144
33	10312	0	144
33	10440	0	144
33	11448	0	144
33	11728	0	144
33	11832	0	144
34	41	0	35
34	57	0	44
34	77	0	51
34	178	0	80
34	206	0	84
34	244	0	92
34	248	0	92
34	284	0	95
34	317	0	105
34	336	0	105
34	349	0	105
34	500	0	118
34	702	0	127
34	755	0	128
34	831	0	128
34	899	0	129
34	916	0	129
34	936	0	129
34	1520	0	133
34	1554	0	133
34	1562	0	133
34	1642	0	133
34	1814	0	133
34	1840	0	133
34	2066	0	133
34	2186	0	133
34	2344	0	133
34	2358	0	133
34	2470	0	134
34	2494	0	134
34	2510	0	134
34	3296	0	135
34	3328	0	135
34	3540	0	136
34	3744	0	136
34	3892	0	140
34	3912	0	140
34	4132	0	140
34	4272	0	140
34	4300	0	140
34	4328	0	140
34	4372	0	140
34	4784	0	140
34	5412	0	140
34	5888	0	140
34	6248	0	140
34	6264	0	140
34	6424	0	140
34	6440	0	142
34	6808	0	143
34	7144	0	143
34	7832	0	143
34	7952	0	143
34	8512	0	143
34	8616	0	143
34	9736	0	144
34	9784	0	144
34	9832	0	144
34	10128	0	144
34	10232	0	144
34	11960	0	144
35	42	0	36
35	250	0	93
35	253	0	93
35	320	0	105
35	378	0	107
35	411	0	108
35	523	0	118
35	683	0	127
35	735	0	128
35	818	0	128
35	898	0	129
35	915	0	129
35	1022	0	131
35	1036	0	131
35	1380	0	133
35	1492	0	133
35	1498	0	133
35	1716	0	133
35	2444	0	134
35	2588	0	134
35	2602	0	134
35	2780	0	135
35	2786	0	135
35	2900	0	135
35	2912	0	135
35	3096	0	135
35	3720	0	136
35	3924	0	140
35	3932	0	140
35	3960	0	140
35	3996	0	140
35	4124	0	140
35	4472	0	140
35	5016	0	140
35	5072	0	140
35	5148	0	140
35	5684	0	140
35	5692	0	140
35	6484	0	143
35	8704	0	143
35	8912	0	143
35	9584	0	144
35	10248	0	144
35	10992	0	144
35	11520	0	144
35	11872	0	144
35	11912	0	144
36	44	0	37
36	71	0	49
36	172	0	79
36	263	0	93
36	313	0	105
36	418	0	108
36	498	0	118
36	530	0	118
36	591	0	118
36	699	0	127
36	705	0	127
36	716	0	128
36	786	0	128
36	817	0	128
36	939	0	129
36	1004	0	130
36	1064	0	131
36	1144	0	131
36	1160	0	131
36	1410	0	133
36	1646	0	133
36	1668	0	133
36	2006	0	133
36	2098	0	133
36	2386	0	133
36	2396	0	133
36	2704	0	134
36	3016	0	135
36	3192	0	135
36	3796	0	138
36	4096	0	140
36	4516	0	140
36	4596	0	140
36	5064	0	140
36	5084	0	140
36	5612	0	140
36	6016	0	140
36	6276	0	140
36	8024	0	143
36	8136	0	143
36	8248	0	143
36	8528	0	143
36	9064	0	143
36	10112	0	144
36	10632	0	144
36	10680	0	144
36	12080	0	144
36	12408	0	144
37	45	0	38
37	294	0	95
37	450	0	109
37	491	0	117
37	698	0	127
37	823	0	128
37	929	0	129
37	931	0	129
37	938	0	129
37	1082	0	131
37	1102	0	131
37	1506	0	133
37	1628	0	133
37	1724	0	133
37	1938	0	133
37	2062	0	133
37	2184	0	133
37	2310	0	133
37	2384	0	133
37	2406	0	133
37	2864	0	135
37	3800	0	139
37	5592	0	140
37	5616	0	140
37	6816	0	143
37	6908	0	143
37	6952	0	143
37	7872	0	143
37	9768	0	144
37	10656	0	144
37	10744	0	144
37	11880	0	144
37	12032	0	144
37	12296	0	144
38	47	0	39
38	59	0	45
38	116	0	63
38	214	0	85
38	228	0	90
38	494	0	118
38	527	0	118
38	543	0	118
38	549	0	118
38	600	0	119
38	669	0	127
38	733	0	128
38	1448	0	133
38	1488	0	133
38	1654	0	133
38	1786	0	133
38	1828	0	133
38	2076	0	133
38	2244	0	133
38	2354	0	133
38	2486	0	134
38	2972	0	135
38	3536	0	136
38	3684	0	136
38	3836	0	140
38	4160	0	140
38	4168	0	140
38	4452	0	140
38	4648	0	140
38	4792	0	140
38	5216	0	140
38	5224	0	140
38	5320	0	140
38	5448	0	140
38	5576	0	140
38	5588	0	140
38	5920	0	140
38	5968	0	140
38	5984	0	140
38	6272	0	140
38	6452	0	143
38	6764	0	143
38	6936	0	143
38	7152	0	143
38	7936	0	143
38	9336	0	144
38	9440	0	144
38	9632	0	144
38	9800	0	144
38	10048	0	144
38	10136	0	144
38	10352	0	144
38	10432	0	144
38	10648	0	144
38	10696	0	144
38	11400	0	144
38	12304	0	144
39	48	0	40
39	103	0	59
39	233	0	90
39	266	0	93
39	353	0	105
39	386	0	107
39	407	0	108
39	415	0	108
39	419	0	108
39	443	0	109
39	578	0	118
39	677	0	127
39	741	0	128
39	792	0	128
39	900	0	129
39	1014	0	130
39	1038	0	131
39	1132	0	131
39	1214	0	131
39	1396	0	133
39	1552	0	133
39	1674	0	133
39	1864	0	133
39	1906	0	133
39	2058	0	133
39	2398	0	133
39	2472	0	134
39	2568	0	134
39	2646	0	134
39	2874	0	135
39	3024	0	135
39	3308	0	135
39	3928	0	140
39	4112	0	140
39	5008	0	140
39	5136	0	140
39	5200	0	140
39	5220	0	140
39	5340	0	140
39	6356	0	140
39	6768	0	143
39	6872	0	143
39	8816	0	143
39	8856	0	143
39	8872	0	143
39	9264	0	144
39	9544	0	144
39	9816	0	144
39	12048	0	144
40	50	0	41
40	373	0	106
40	555	0	118
40	574	0	118
40	609	0	119
40	907	0	129
40	911	0	129
40	918	0	129
40	1006	0	130
40	1134	0	131
40	1156	0	131
40	1292	0	132
40	1514	0	133
40	1996	0	133
40	2272	0	133
40	2296	0	133
40	2488	0	134
40	2616	0	134
40	2776	0	135
40	2818	0	135
40	2856	0	135
40	2998	0	135
40	3276	0	135
40	3320	0	135
40	4056	0	140
40	4548	0	140
40	4616	0	140
40	4644	0	140
40	5192	0	140
40	5560	0	140
40	5648	0	140
40	5668	0	140
40	6224	0	140
40	6600	0	143
40	6940	0	143
40	7032	0	143
40	7088	0	143
40	7568	0	143
40	8088	0	143
40	8632	0	143
40	12104	0	144
40	12368	0	144
41	52	0	42
41	224	0	90
41	254	0	93
41	335	0	105
41	467	0	115
41	589	0	118
41	721	0	128
41	746	0	128
41	957	0	129
41	1440	0	133
41	1480	0	133
41	1602	0	133
41	2262	0	133
41	2550	0	134
41	2560	0	134
41	2604	0	134
41	2782	0	135
41	2970	0	135
41	3196	0	135
41	4764	0	140
41	4844	0	140
41	5004	0	140
41	5056	0	140
41	5556	0	140
41	5688	0	140
41	5988	0	140
41	6204	0	140
41	6268	0	140
41	6456	0	143
41	6596	0	143
41	8624	0	143
41	8640	0	143
41	9640	0	144
41	9720	0	144
41	10072	0	144
41	10368	0	144
41	10816	0	144
41	11952	0	144
42	53	0	43
42	119	0	64
42	230	0	90
42	375	0	106
42	398	0	107
42	413	0	108
42	583	0	118
42	742	0	128
42	839	0	128
42	854	0	128
42	1232	0	131
42	1278	0	132
42	1432	0	133
42	1908	0	133
42	2162	0	133
42	2370	0	133
42	2454	0	134
42	2730	0	135
42	2902	0	135
42	4016	0	140
42	4024	0	140
42	4276	0	140
42	5916	0	140
42	6404	0	140
42	7888	0	143
42	8168	0	143
42	8536	0	143
42	9024	0	143
42	10216	0	144
42	10832	0	144
42	11128	0	144
42	12320	0	144
43	55	0	44
43	370	0	106
43	497	0	118
43	581	0	118
43	590	0	118
43	715	0	128
43	1056	0	131
43	1276	0	131
43	1412	0	133
43	1490	0	133
43	1698	0	133
43	1712	0	133
43	1822	0	133
43	1982	0	133
43	1994	0	133
43	2324	0	133
43	2450	0	134
43	2456	0	134
43	2474	0	134
43	2726	0	135
43	3004	0	135
43	3360	0	135
43	4004	0	140
43	4148	0	140
43	4384	0	140
43	4424	0	140
43	5168	0	140
43	5992	0	140
43	6876	0	143
43	8280	0	143
43	8960	0	143
43	9864	0	144
43	10040	0	144
43	10320	0	144
43	11192	0	144
43	12384	0	144
44	58	0	45
44	100	0	59
44	156	0	77
44	215	0	85
44	503	0	118
44	537	0	118
44	554	0	118
44	616	0	119
44	679	0	127
44	697	0	127
44	709	0	127
44	816	0	128
44	849	0	128
44	852	0	128
44	856	0	128
44	1146	0	131
44	1158	0	131
44	1264	0	131
44	1290	0	132
44	1428	0	133
44	1516	0	133
44	1876	0	133
44	1992	0	133
44	2110	0	133
44	2172	0	133
44	2178	0	133
44	2364	0	133
44	2390	0	133
44	2498	0	134
44	2700	0	134
44	3348	0	135
44	4040	0	140
44	4628	0	140
44	5492	0	140
44	5652	0	140
44	6212	0	140
44	6232	0	140
44	6372	0	140
44	6548	0	143
44	6560	0	143
44	6812	0	143
44	6960	0	143
44	8144	0	143
44	8496	0	143
44	11800	0	144
44	11856	0	144
44	12040	0	144
45	63	0	46
45	168	0	78
45	216	0	85
45	358	0	105
45	372	0	106
45	488	0	117
45	604	0	119
45	719	0	128
45	725	0	128
45	757	0	128
45	788	0	128
45	914	0	129
45	970	0	130
45	1098	0	131
45	1222	0	131
45	1500	0	133
45	1732	0	133
45	2304	0	133
45	2592	0	134
45	2598	0	134
45	2610	0	134
45	2724	0	135
45	3000	0	135
45	3748	0	136
45	4140	0	140
45	4224	0	140
45	4248	0	140
45	4636	0	140
45	4660	0	140
45	5268	0	140
45	5664	0	140
45	6256	0	140
45	8096	0	143
45	10640	0	144
45	11304	0	144
45	11472	0	144
45	11512	0	144
45	12000	0	144
46	67	0	47
46	4684	0	140
46	4700	0	140
47	68	0	48
47	4688	0	140
48	70	0	49
48	262	0	93
48	289	0	95
48	333	0	105
48	539	0	118
48	613	0	119
48	752	0	128
48	787	0	128
48	1034	0	131
48	1358	0	133
48	1940	0	133
48	2626	0	134
48	2664	0	134
48	2798	0	135
48	3060	0	135
48	3648	0	136
48	3752	0	136
48	3936	0	140
48	4036	0	140
48	4252	0	140
48	5304	0	140
48	5620	0	140
48	7976	0	143
48	12136	0	144
48	12464	0	144
49	72	0	50
49	202	0	84
49	252	0	93
49	382	0	107
49	700	0	127
49	723	0	128
49	844	0	128
49	847	0	128
49	850	0	128
49	1024	0	131
49	1028	0	131
49	1066	0	131
49	1598	0	133
49	1796	0	133
49	2060	0	133
49	2070	0	133
49	2116	0	133
49	2224	0	133
49	2342	0	133
49	2448	0	134
49	2596	0	134
49	2796	0	135
49	2976	0	135
49	3140	0	135
49	3336	0	135
49	4228	0	140
49	4416	0	140
49	5288	0	140
49	6000	0	140
49	6280	0	140
49	6956	0	143
49	7768	0	143
49	7920	0	143
49	8072	0	143
49	8952	0	143
49	8992	0	143
49	9456	0	144
49	9744	0	144
49	9896	0	144
49	10328	0	144
49	11120	0	144
49	12144	0	144
50	75	0	51
50	115	0	63
50	176	0	80
50	285	0	95
50	288	0	95
50	337	0	105
50	394	0	107
50	438	0	109
50	514	0	118
50	614	0	119
50	739	0	128
50	773	0	128
50	798	0	128
50	921	0	129
50	948	0	129
50	1280	0	132
50	1318	0	133
50	1378	0	133
50	1392	0	133
50	1398	0	133
50	1414	0	133
50	1672	0	133
50	1710	0	133
50	1762	0	133
50	1812	0	133
50	2114	0	133
50	2176	0	133
50	2220	0	133
50	2654	0	134
50	2662	0	134
50	2708	0	134
50	2990	0	135
50	3064	0	135
50	3132	0	135
50	3188	0	135
50	3312	0	135
50	3676	0	136
50	4368	0	140
50	4580	0	140
50	5332	0	140
50	5496	0	140
50	6364	0	140
50	6476	0	143
50	8296	0	143
50	8592	0	143
50	9552	0	144
50	9624	0	144
50	9960	0	144
50	10024	0	144
50	10168	0	144
50	11312	0	144
50	11504	0	144
50	11552	0	144
50	11752	0	144
50	12016	0	144
51	78	0	52
51	282	0	95
51	293	0	95
51	364	0	105
51	533	0	118
51	547	0	118
51	572	0	118
51	629	0	119
51	1464	0	133
51	1474	0	133
51	1538	0	133
51	1584	0	133
51	1592	0	133
51	1652	0	133
51	1788	0	133
51	4456	0	140
51	4524	0	140
51	5024	0	140
51	5276	0	140
51	6020	0	140
51	6804	0	143
51	6948	0	143
51	8032	0	143
51	8896	0	143
51	12152	0	144
52	84	0	53
52	158	0	77
52	261	0	93
52	287	0	95
52	318	0	105
52	321	0	105
52	341	0	105
52	355	0	105
52	421	0	108
52	509	0	118
52	517	0	118
52	682	0	127
52	695	0	127
52	761	0	128
52	789	0	128
52	797	0	128
52	810	0	128
52	1112	0	131
52	1326	0	133
52	1748	0	133
52	1784	0	133
52	2280	0	133
52	2502	0	134
52	2580	0	134
52	2622	0	134
52	2678	0	134
52	2992	0	135
52	3148	0	135
52	3768	0	136
52	4012	0	140
52	4164	0	140
52	4256	0	140
52	4600	0	140
52	5044	0	140
52	5348	0	140
52	5500	0	140
52	6584	0	143
52	7048	0	143
52	7912	0	143
52	8920	0	143
52	9112	0	143
52	9696	0	144
52	9880	0	144
52	11664	0	144
53	85	0	54
53	120	0	64
53	157	0	77
53	368	0	105
53	400	0	107
53	496	0	118
53	765	0	128
53	772	0	128
53	842	0	128
53	941	0	129
53	959	0	129
53	1070	0	131
53	1252	0	131
53	1266	0	131
53	1288	0	132
53	1402	0	133
53	1648	0	133
53	2002	0	133
53	2078	0	133
53	2100	0	133
53	2264	0	133
53	2368	0	133
53	2594	0	134
53	2608	0	134
53	2674	0	134
53	2684	0	134
53	2690	0	134
53	3292	0	135
53	3340	0	135
53	3664	0	136
53	4324	0	140
53	4444	0	140
53	5108	0	140
53	5128	0	140
53	5700	0	140
53	5928	0	140
53	6396	0	140
53	7104	0	143
53	7128	0	143
53	7960	0	143
53	8120	0	143
53	9616	0	144
53	10344	0	144
53	10424	0	144
53	11488	0	144
53	12400	0	144
53	12424	0	144
54	87	0	55
54	92	0	57
54	240	0	91
54	453	0	109
54	671	0	127
54	840	0	128
54	848	0	128
54	853	0	128
54	954	0	129
54	962	0	129
54	1452	0	133
54	1686	0	133
54	1730	0	133
54	1768	0	133
54	2158	0	133
54	2476	0	134
54	2618	0	134
54	2666	0	134
54	2688	0	134
54	2718	0	135
54	2836	0	135
54	3124	0	135
54	3172	0	135
54	3356	0	135
54	3716	0	136
54	3844	0	140
54	4576	0	140
54	5644	0	140
54	6480	0	143
54	6496	0	143
54	7648	0	143
54	8376	0	143
54	8568	0	143
54	10560	0	144
54	11648	0	144
54	12208	0	144
54	12232	0	144
54	12336	0	144
55	88	0	56
55	98	0	58
55	204	0	84
55	242	0	91
55	270	0	93
55	325	0	105
55	345	0	105
55	347	0	105
55	483	0	117
55	507	0	118
55	542	0	118
55	553	0	118
55	754	0	128
55	764	0	128
55	769	0	128
55	790	0	128
55	843	0	128
55	935	0	129
55	1058	0	131
55	1108	0	131
55	1370	0	133
55	1422	0	133
55	1714	0	133
55	2274	0	133
55	2302	0	133
55	2326	0	133
55	2346	0	133
55	2402	0	133
55	2578	0	134
55	2698	0	134
55	2982	0	135
55	3300	0	135
55	3616	0	136
55	3624	0	136
55	3904	0	140
55	4292	0	140
55	5212	0	140
55	5696	0	140
55	6236	0	140
55	6992	0	143
55	7040	0	143
55	7096	0	143
55	7776	0	143
55	8016	0	143
55	9040	0	143
55	9368	0	144
55	10400	0	144
55	10584	0	144
55	12432	0	144
56	90	0	57
56	686	0	127
56	692	0	127
56	731	0	128
56	830	0	128
56	933	0	129
56	1244	0	131
56	1586	0	133
56	1844	0	133
56	1852	0	133
56	1914	0	133
56	2360	0	133
56	2408	0	133
56	2890	0	135
56	3696	0	136
56	3900	0	140
56	4180	0	140
56	4208	0	140
56	4220	0	140
56	4812	0	140
56	5020	0	140
56	5068	0	140
56	5548	0	140
56	5944	0	140
56	5956	0	140
56	6792	0	143
56	6836	0	143
56	8040	0	143
56	9328	0	144
56	11432	0	144
57	96	0	58
57	211	0	85
57	276	0	95
57	563	0	118
57	582	0	118
57	822	0	128
57	903	0	129
57	934	0	129
57	1088	0	131
57	1332	0	133
57	1346	0	133
57	1664	0	133
57	1932	0	133
57	2094	0	133
57	2258	0	133
57	2350	0	133
57	2830	0	135
57	3252	0	135
57	5316	0	140
57	5552	0	140
57	5940	0	140
57	6024	0	140
57	6352	0	140
57	6488	0	143
57	7544	0	143
57	7856	0	143
57	9792	0	144
57	9984	0	144
57	11440	0	144
57	11992	0	144
58	99	0	59
58	151	0	76
58	326	0	105
58	342	0	105
58	422	0	108
58	426	0	108
58	433	0	109
58	598	0	119
58	612	0	119
58	776	0	128
58	953	0	129
58	1372	0	133
58	1532	0	133
58	1688	0	133
58	1706	0	133
58	1770	0	133
58	1958	0	133
58	1972	0	133
58	1978	0	133
58	2112	0	133
58	2122	0	133
58	2146	0	133
58	2332	0	133
58	3044	0	135
58	3112	0	135
58	4584	0	140
58	5472	0	140
58	5488	0	140
58	6316	0	140
58	6552	0	143
58	8720	0	143
58	9536	0	144
59	108	0	60
59	4692	0	140
59	4704	0	140
60	110	0	61
60	429	0	109
60	432	0	109
60	800	0	128
60	1692	0	133
60	3776	0	137
60	3872	0	140
60	3940	0	140
60	4608	0	140
60	5256	0	140
60	6332	0	140
60	7064	0	143
60	7632	0	143
60	10280	0	144
61	111	0	62
61	430	0	109
61	777	0	128
61	795	0	128
61	966	0	130
61	7584	0	143
61	7800	0	143
61	9200	0	143
61	9224	0	143
61	10872	0	144
61	10888	0	144
62	112	0	63
62	184	0	82
62	1948	0	133
62	1962	0	133
63	117	0	64
63	123	0	64
63	160	0	77
63	297	0	95
63	324	0	105
63	348	0	105
63	381	0	107
63	502	0	118
63	599	0	119
63	708	0	127
63	722	0	128
63	785	0	128
63	857	0	128
63	922	0	129
63	972	0	130
63	1114	0	131
63	1198	0	131
63	1320	0	133
63	1426	0	133
63	1456	0	133
63	2088	0	133
63	2214	0	133
63	2268	0	133
63	2648	0	134
63	3584	0	136
63	3724	0	136
63	4244	0	140
63	4388	0	140
63	4552	0	140
63	5096	0	140
63	5112	0	140
63	5164	0	140
63	5172	0	140
63	5440	0	140
63	5876	0	140
63	5972	0	140
63	6216	0	140
63	6508	0	143
63	6916	0	143
63	7112	0	143
63	8272	0	143
63	8352	0	143
63	8368	0	143
63	8768	0	143
63	9664	0	144
63	11816	0	144
64	125	0	65
64	201	0	84
64	338	0	105
64	482	0	117
64	605	0	119
64	624	0	119
64	706	0	127
64	740	0	128
64	753	0	128
64	969	0	130
64	1142	0	131
64	1152	0	131
64	1202	0	131
64	1254	0	131
64	1286	0	132
64	1388	0	133
64	1694	0	133
64	1752	0	133
64	1834	0	133
64	2120	0	133
64	2270	0	133
64	2328	0	133
64	2716	0	135
64	2840	0	135
64	2880	0	135
64	3032	0	135
64	3048	0	135
64	3712	0	136
64	3992	0	140
64	4116	0	140
64	4556	0	140
64	4604	0	140
64	5144	0	140
64	5180	0	140
64	5292	0	140
64	6004	0	140
64	6304	0	140
64	6336	0	140
64	6556	0	143
64	6852	0	143
64	7704	0	143
64	8712	0	143
64	9016	0	143
64	9176	0	143
64	9416	0	144
64	9904	0	144
64	9968	0	144
64	10032	0	144
64	10192	0	144
64	10800	0	144
64	11240	0	144
64	12096	0	144
64	12120	0	144
65	126	0	66
65	393	0	107
65	596	0	119
65	672	0	127
65	801	0	128
65	1702	0	133
65	2144	0	133
65	2150	0	133
65	2744	0	135
65	2846	0	135
65	3604	0	136
65	3860	0	140
65	4104	0	140
65	5484	0	140
65	5900	0	140
65	6320	0	140
65	7608	0	143
65	7904	0	143
65	9192	0	143
65	9232	0	143
65	10176	0	144
65	10864	0	144
65	10936	0	144
65	11896	0	144
66	127	0	67
66	129	0	68
66	269	0	93
66	351	0	105
66	437	0	109
66	576	0	118
66	580	0	118
66	749	0	128
66	1008	0	130
66	1012	0	130
66	1376	0	133
66	1434	0	133
66	1610	0	133
66	1704	0	133
66	1766	0	133
66	1824	0	133
66	1836	0	133
66	2170	0	133
66	2226	0	133
66	2338	0	133
66	2452	0	134
66	2478	0	134
66	2658	0	134
66	2860	0	135
66	3316	0	135
66	3592	0	136
66	3984	0	140
66	4028	0	140
66	4560	0	140
66	5636	0	140
66	5872	0	140
66	5896	0	140
66	7072	0	143
66	7696	0	143
66	7824	0	143
66	8608	0	143
66	8800	0	143
66	8984	0	143
66	9496	0	144
66	9752	0	144
66	11744	0	144
66	12480	0	144
67	128	0	68
67	229	0	90
67	246	0	92
67	290	0	95
67	414	0	108
67	718	0	128
67	808	0	128
67	932	0	129
67	943	0	129
67	1048	0	131
67	1404	0	133
67	1750	0	133
67	1850	0	133
67	2134	0	133
67	2496	0	134
67	2500	0	134
67	2644	0	134
67	2682	0	134
67	2738	0	135
67	2878	0	135
67	3008	0	135
67	3092	0	135
67	3556	0	136
67	3884	0	140
67	3968	0	140
67	4120	0	140
67	4196	0	140
67	4460	0	140
67	5208	0	140
67	6380	0	140
67	6420	0	140
67	6944	0	143
67	7080	0	143
67	7688	0	143
67	7736	0	143
67	8752	0	143
67	8904	0	143
67	9656	0	144
67	9776	0	144
67	10408	0	144
67	11592	0	144
68	130	0	69
68	147	0	75
68	193	0	84
68	200	0	84
68	2660	0	134
68	2710	0	134
68	2714	0	135
68	2758	0	135
68	2774	0	135
68	2854	0	135
68	8160	0	143
69	131	0	70
69	133	0	71
69	137	0	73
69	142	0	73
69	146	0	75
69	190	0	84
69	194	0	84
69	199	0	84
69	2768	0	135
69	2772	0	135
70	132	0	71
70	136	0	73
70	141	0	73
70	143	0	73
70	195	0	84
70	197	0	84
70	2762	0	135
71	134	0	72
71	139	0	73
71	188	0	84
71	198	0	84
71	2766	0	135
72	135	0	73
72	138	0	73
72	140	0	73
73	144	0	74
73	191	0	84
73	196	0	84
73	2770	0	135
74	145	0	75
74	189	0	84
74	192	0	84
74	2760	0	135
74	2764	0	135
75	150	0	76
75	163	0	77
75	165	0	78
75	361	0	105
75	379	0	107
75	402	0	107
75	481	0	117
75	516	0	118
75	619	0	119
75	738	0	128
75	750	0	128
75	920	0	129
75	1092	0	131
75	1218	0	131
75	1224	0	131
75	1282	0	132
75	1374	0	133
75	1526	0	133
75	1548	0	133
75	1606	0	133
75	1678	0	133
75	1728	0	133
75	1892	0	133
75	1902	0	133
75	1968	0	133
75	2056	0	133
75	2104	0	133
75	2586	0	134
75	2642	0	134
75	2804	0	135
75	2814	0	135
75	2988	0	135
75	3068	0	135
75	3180	0	135
75	3952	0	140
75	4620	0	140
75	5052	0	140
75	5160	0	140
75	5296	0	140
75	5540	0	140
75	6208	0	140
75	6416	0	140
75	6472	0	143
75	7752	0	143
75	8944	0	143
75	9304	0	144
75	9376	0	144
75	10016	0	144
75	10296	0	144
75	11720	0	144
75	11784	0	144
75	12128	0	144
75	12200	0	144
75	12344	0	144
76	155	0	77
76	292	0	95
76	397	0	107
76	479	0	117
76	550	0	118
76	610	0	119
76	617	0	119
76	704	0	127
76	720	0	128
76	812	0	128
76	834	0	128
76	1062	0	131
76	1120	0	131
76	1406	0	133
76	2232	0	133
76	2468	0	134
76	2548	0	134
76	2566	0	134
76	2614	0	134
76	2680	0	134
76	2720	0	135
76	2816	0	135
76	2876	0	135
76	2978	0	135
76	3560	0	136
76	3660	0	136
76	3832	0	140
76	4352	0	140
76	4592	0	140
76	5204	0	140
76	5848	0	140
76	6008	0	140
76	6284	0	140
76	6520	0	143
76	6576	0	143
76	8184	0	143
76	9824	0	144
76	9976	0	144
76	10200	0	144
76	10456	0	144
76	11496	0	144
76	11704	0	144
76	12088	0	144
77	164	0	78
77	260	0	93
77	357	0	105
77	425	0	108
77	784	0	128
77	791	0	128
77	961	0	129
77	1256	0	131
77	1260	0	131
77	1420	0	133
77	1780	0	133
77	1884	0	133
77	1890	0	133
77	2800	0	135
77	3164	0	135
77	3780	0	138
77	3820	0	140
77	3880	0	140
77	3944	0	140
77	4428	0	140
77	5152	0	140
77	5336	0	140
77	5864	0	140
77	5904	0	140
77	5996	0	140
77	6504	0	143
77	7656	0	143
77	7896	0	143
77	10968	0	144
77	11200	0	144
77	11256	0	144
77	11464	0	144
77	11864	0	144
77	12520	0	144
77	12536	0	145
78	169	0	79
78	277	0	95
78	529	0	118
78	541	0	118
78	603	0	119
78	687	0	127
78	724	0	128
78	728	0	128
78	1312	0	133
78	1594	0	133
78	1738	0	133
78	1802	0	133
78	1988	0	133
78	2256	0	133
78	2534	0	134
78	2822	0	135
78	2832	0	135
78	3976	0	140
78	4484	0	140
78	4668	0	140
78	4780	0	140
78	4824	0	140
78	4960	0	140
78	5032	0	140
78	5076	0	140
78	6252	0	140
78	6384	0	140
78	7536	0	143
78	7928	0	143
78	8000	0	143
78	8208	0	143
78	8424	0	143
78	8456	0	143
78	9448	0	144
78	10120	0	144
78	10672	0	144
78	11096	0	144
78	12280	0	144
79	174	0	80
79	213	0	85
79	225	0	90
79	448	0	109
79	454	0	109
79	506	0	118
79	544	0	118
79	623	0	119
79	960	0	129
79	998	0	130
79	1074	0	131
79	1328	0	133
79	1564	0	133
79	1832	0	133
79	1896	0	133
79	2166	0	133
79	2236	0	133
79	2514	0	134
79	2612	0	134
79	2792	0	135
79	3168	0	135
79	3352	0	135
79	3656	0	136
79	5176	0	140
79	5196	0	140
79	5884	0	140
79	6220	0	140
79	6240	0	140
79	6368	0	140
79	6468	0	143
79	6572	0	143
79	6780	0	143
79	6964	0	143
79	6996	0	143
79	8176	0	143
79	9424	0	144
79	9560	0	144
79	9848	0	144
79	10008	0	144
79	10144	0	144
79	11136	0	144
79	11456	0	144
79	11600	0	144
79	11688	0	144
79	12072	0	144
80	180	0	81
80	329	0	105
80	390	0	107
80	597	0	119
80	680	0	127
80	774	0	128
80	968	0	130
80	2148	0	133
80	2752	0	135
80	2842	0	135
80	2848	0	135
80	7616	0	143
80	8488	0	143
80	9248	0	144
80	10184	0	144
80	10856	0	144
80	10920	0	144
81	182	0	82
81	424	0	108
81	963	0	129
81	1360	0	133
81	1774	0	133
81	1942	0	133
81	2884	0	135
81	3116	0	135
81	3600	0	136
81	3608	0	136
81	5640	0	140
81	6308	0	140
81	10760	0	144
81	10904	0	144
81	11928	0	144
81	12216	0	144
81	12472	0	144
81	12512	0	144
82	185	0	83
82	187	0	84
83	186	0	84
84	208	0	85
84	365	0	105
84	487	0	117
84	548	0	118
84	626	0	119
84	726	0	128
84	825	0	128
84	1272	0	131
84	1472	0	133
84	1568	0	133
84	1718	0	133
84	1930	0	133
84	2072	0	133
84	2242	0	133
84	2254	0	133
84	2288	0	133
84	2632	0	134
84	2870	0	135
84	3644	0	136
84	3688	0	136
84	3812	0	140
84	4192	0	140
84	4496	0	140
84	4540	0	140
84	5036	0	140
84	5464	0	140
84	5508	0	140
84	6544	0	143
84	6796	0	143
84	6860	0	143
84	8472	0	143
84	9576	0	144
84	9600	0	144
84	10592	0	144
84	11048	0	144
84	11296	0	144
84	11408	0	144
84	12256	0	144
85	219	0	86
85	562	0	118
85	635	0	119
85	657	0	125
85	976	0	130
85	988	0	130
85	1166	0	131
85	1656	0	133
85	2420	0	134
85	3236	0	135
85	3452	0	136
85	5580	0	140
85	6620	0	143
85	6664	0	143
85	6692	0	143
85	7160	0	143
85	7232	0	143
85	7288	0	143
85	7480	0	143
85	8688	0	143
86	220	0	87
86	309	0	104
86	649	0	123
86	987	0	130
86	1178	0	131
86	3220	0	135
86	3496	0	136
86	4928	0	140
86	5400	0	140
86	5732	0	140
86	5756	0	140
86	5768	0	140
86	5812	0	140
86	5828	0	140
86	5836	0	140
86	6076	0	140
86	6192	0	140
86	10480	0	144
86	10496	0	144
87	221	0	88
87	304	0	100
87	641	0	121
87	668	0	127
87	870	0	129
87	894	0	129
87	974	0	130
87	1446	0	133
87	2556	0	134
87	2936	0	135
87	2968	0	135
87	3400	0	135
87	3416	0	135
87	4760	0	140
87	5388	0	140
87	5584	0	140
87	6200	0	140
87	6752	0	143
87	7248	0	143
87	8672	0	143
87	10080	0	144
87	11984	0	144
88	222	0	89
88	978	0	130
88	2042	0	133
88	2046	0	133
88	2050	0	133
88	2924	0	135
88	2958	0	135
88	3384	0	135
88	3424	0	135
88	3432	0	136
88	3476	0	136
88	5392	0	140
88	5748	0	140
88	6112	0	140
88	6136	0	140
88	6168	0	140
88	7216	0	143
88	7344	0	143
88	7376	0	143
88	7448	0	143
88	11376	0	144
89	223	0	90
89	526	0	118
89	588	0	118
89	647	0	123
89	879	0	129
89	896	0	129
89	1176	0	131
89	1578	0	133
89	2930	0	135
89	4748	0	140
89	4832	0	140
89	4848	0	140
89	4892	0	140
89	4996	0	140
89	5396	0	140
89	5760	0	140
89	6144	0	140
89	6660	0	143
89	6680	0	143
89	7240	0	143
89	8840	0	143
89	11352	0	144
89	11392	0	144
90	235	0	91
90	571	0	118
90	691	0	127
90	828	0	128
90	1084	0	131
90	1636	0	133
90	4488	0	140
90	4776	0	140
90	5360	0	140
90	5600	0	140
90	5608	0	140
90	5936	0	140
90	8400	0	143
90	8440	0	143
90	9344	0	144
90	10056	0	144
91	243	0	92
91	298	0	95
91	312	0	105
91	404	0	107
91	557	0	118
91	622	0	119
91	711	0	127
91	713	0	128
91	807	0	128
91	858	0	128
91	897	0	129
91	924	0	129
91	937	0	129
91	973	0	130
91	1068	0	131
91	1236	0	131
91	1270	0	131
91	1384	0	133
91	1458	0	133
91	1478	0	133
91	1570	0	133
91	1596	0	133
91	1798	0	133
91	1804	0	133
91	1898	0	133
91	2096	0	133
91	2102	0	133
91	2464	0	134
91	2794	0	135
91	2826	0	135
91	2996	0	135
91	3260	0	135
91	3572	0	136
91	3828	0	140
91	4060	0	140
91	4088	0	140
91	4128	0	140
91	4544	0	140
91	4772	0	140
91	4840	0	140
91	4952	0	140
91	5384	0	140
91	5512	0	140
91	6756	0	143
91	7496	0	143
91	8696	0	143
91	8832	0	143
91	9032	0	143
91	9944	0	144
91	10376	0	144
91	10712	0	144
91	11064	0	144
91	11976	0	144
92	249	0	93
92	274	0	95
92	311	0	105
92	377	0	107
92	478	0	117
92	556	0	118
92	684	0	127
92	815	0	128
92	912	0	129
92	1204	0	131
92	1234	0	131
92	1296	0	132
92	2222	0	133
92	2248	0	133
92	2294	0	133
92	2400	0	133
92	2504	0	134
92	2518	0	134
92	2524	0	134
92	2606	0	134
92	2784	0	135
92	3028	0	135
92	3636	0	136
92	3920	0	140
92	4008	0	140
92	4240	0	140
92	4724	0	140
92	4968	0	140
92	5628	0	140
92	6012	0	140
92	6340	0	140
92	6604	0	143
92	8336	0	143
92	8360	0	143
92	8880	0	143
92	9104	0	143
92	9288	0	144
92	11032	0	144
92	11232	0	144
92	11616	0	144
93	271	0	94
93	322	0	105
93	327	0	105
93	354	0	105
93	395	0	107
93	593	0	118
93	775	0	128
93	794	0	128
93	952	0	129
93	1696	0	133
93	1778	0	133
93	1886	0	133
93	1980	0	133
93	2124	0	133
93	2886	0	135
93	3784	0	138
93	4044	0	140
93	4108	0	140
93	4612	0	140
93	5660	0	140
93	6296	0	140
93	7576	0	143
93	8544	0	143
93	8776	0	143
93	8968	0	143
93	9256	0	144
93	10840	0	144
93	11768	0	144
93	11808	0	144
93	12504	0	144
94	272	0	95
94	401	0	107
94	510	0	118
94	513	0	118
94	767	0	128
94	1454	0	133
94	1600	0	133
94	1608	0	133
94	1858	0	133
94	2136	0	133
94	2366	0	133
94	2736	0	135
94	3036	0	135
94	3280	0	135
94	3548	0	136
94	3668	0	136
94	4236	0	140
94	4268	0	140
94	4280	0	140
94	4348	0	140
94	4572	0	140
94	4624	0	140
94	4732	0	140
94	5444	0	140
94	5572	0	140
94	5880	0	140
94	9272	0	144
94	9856	0	144
94	10528	0	144
94	10624	0	144
94	10688	0	144
94	10704	0	144
94	11224	0	144
94	11824	0	144
95	299	0	96
95	560	0	118
95	630	0	119
95	859	0	128
95	861	0	129
95	883	0	129
95	887	0	129
95	1462	0	133
95	1572	0	133
95	2920	0	135
95	3460	0	136
95	4064	0	140
95	4076	0	140
95	4948	0	140
95	5724	0	140
95	6028	0	140
95	6684	0	143
95	6704	0	143
95	6980	0	143
95	7264	0	143
95	7488	0	143
96	300	0	97
96	646	0	123
96	659	0	125
96	867	0	129
96	872	0	129
96	992	0	130
96	2026	0	133
96	3404	0	135
96	3412	0	135
96	3464	0	136
96	4944	0	140
96	5728	0	140
96	6120	0	140
96	6624	0	143
96	6632	0	143
96	6656	0	143
96	7208	0	143
97	301	0	98
97	464	0	114
97	468	0	115
97	561	0	118
97	634	0	119
97	864	0	129
97	975	0	130
97	977	0	130
97	982	0	130
97	1182	0	131
97	1192	0	131
97	1340	0	133
97	2010	0	133
97	2044	0	133
97	2052	0	133
97	2554	0	134
97	2962	0	135
97	3408	0	135
97	4856	0	140
97	4884	0	140
97	5720	0	140
97	5788	0	140
97	6052	0	140
97	6668	0	143
97	7368	0	143
98	302	0	99
98	640	0	121
98	880	0	129
98	984	0	130
98	2018	0	133
98	2432	0	134
98	2932	0	135
98	2946	0	135
98	2952	0	135
98	3240	0	135
98	3368	0	135
98	3396	0	135
98	3504	0	136
98	5716	0	140
98	5764	0	140
98	5804	0	140
98	5832	0	140
98	6140	0	140
98	7184	0	143
98	7320	0	143
98	7360	0	143
99	303	0	100
99	474	0	117
99	633	0	119
99	874	0	129
99	889	0	129
99	1442	0	133
99	2352	0	133
99	2918	0	135
99	2942	0	135
99	2966	0	135
99	3248	0	135
99	3380	0	135
99	3444	0	136
99	3508	0	136
99	4836	0	140
99	4900	0	140
99	6124	0	140
99	6712	0	143
99	6748	0	143
99	6760	0	143
99	7224	0	143
99	7384	0	143
99	10096	0	144
99	11360	0	144
100	305	0	101
100	862	0	129
100	890	0	129
100	1186	0	131
100	1336	0	133
100	1574	0	133
100	2418	0	134
100	4896	0	140
100	6628	0	143
100	7272	0	143
101	306	0	102
101	470	0	115
101	472	0	116
101	631	0	119
101	655	0	125
101	875	0	129
101	881	0	129
101	892	0	129
101	980	0	130
101	2964	0	135
101	3480	0	136
101	3500	0	136
101	4080	0	140
101	4752	0	140
101	4860	0	140
101	4904	0	140
101	6652	0	143
101	7432	0	143
102	307	0	103
102	662	0	125
102	869	0	129
102	885	0	129
102	893	0	129
102	1444	0	133
102	1660	0	133
102	2016	0	133
102	2024	0	133
102	2440	0	134
102	2940	0	135
102	3388	0	135
102	3448	0	136
102	4916	0	140
102	4932	0	140
102	5736	0	140
102	5800	0	140
102	6156	0	140
102	6612	0	143
102	6716	0	143
102	7280	0	143
102	7312	0	143
103	308	0	104
103	886	0	129
103	981	0	130
103	1168	0	131
103	1342	0	133
103	1348	0	133
103	3232	0	135
103	3420	0	135
103	4084	0	140
103	6196	0	140
103	6616	0	143
103	6700	0	143
103	8680	0	143
103	10088	0	144
103	11384	0	144
104	310	0	105
104	456	0	110
104	658	0	125
104	660	0	125
104	1172	0	131
104	1194	0	131
104	2934	0	135
104	2944	0	135
104	3244	0	135
104	4852	0	140
104	6696	0	143
104	6720	0	143
104	7416	0	143
104	7456	0	143
104	10472	0	144
104	11368	0	144
105	369	0	106
105	374	0	106
105	440	0	109
105	505	0	118
105	525	0	118
105	1054	0	131
105	1122	0	131
105	1196	0	131
105	1226	0	131
105	1308	0	133
105	1322	0	133
105	1580	0	133
105	1872	0	133
105	1900	0	133
105	2008	0	133
105	2054	0	133
105	2086	0	133
105	2570	0	134
105	2828	0	135
105	3516	0	136
105	5408	0	140
105	5844	0	140
105	5980	0	140
105	6408	0	140
105	6784	0	143
105	8848	0	143
105	8936	0	143
105	9280	0	144
105	9432	0	144
105	9728	0	144
105	10224	0	144
105	10464	0	144
105	10520	0	144
105	10728	0	144
105	10984	0	144
106	376	0	107
106	445	0	109
106	490	0	117
106	522	0	118
106	546	0	118
106	701	0	127
106	813	0	128
106	904	0	129
106	906	0	129
106	1050	0	131
106	1076	0	131
106	1314	0	133
106	1546	0	133
106	1566	0	133
106	1682	0	133
106	1826	0	133
106	1894	0	133
106	2300	0	133
106	2462	0	134
106	2532	0	134
106	2986	0	135
106	3256	0	135
106	3324	0	135
106	3652	0	136
106	4152	0	140
106	4640	0	140
106	4728	0	140
106	4956	0	140
106	5092	0	140
106	5140	0	140
106	5352	0	140
106	5428	0	140
106	5564	0	140
106	6568	0	143
106	6800	0	143
106	6840	0	143
106	6848	0	143
106	8928	0	143
106	9408	0	144
106	10360	0	144
106	10392	0	144
106	11072	0	144
106	11216	0	144
106	11424	0	144
106	12064	0	144
106	12112	0	144
106	12168	0	144
107	405	0	108
107	442	0	109
107	480	0	117
107	501	0	118
107	618	0	119
107	737	0	128
107	821	0	128
107	923	0	129
107	1230	0	131
107	1302	0	133
107	1354	0	133
107	1484	0	133
107	1670	0	133
107	1874	0	133
107	1878	0	133
107	1888	0	133
107	2084	0	133
107	2174	0	133
107	2212	0	133
107	2246	0	133
107	2392	0	133
107	2584	0	134
107	2672	0	134
107	2894	0	135
107	3012	0	135
107	3080	0	135
107	3544	0	136
107	3964	0	140
107	4412	0	140
107	4432	0	140
107	5088	0	140
107	5104	0	140
107	5132	0	140
107	5680	0	140
107	6292	0	140
107	6512	0	143
107	8552	0	143
107	10976	0	144
108	427	0	109
108	431	0	109
108	595	0	119
108	674	0	127
108	1416	0	133
108	1764	0	133
108	1776	0	133
108	1946	0	133
108	1974	0	133
108	2152	0	133
108	7600	0	143
108	8304	0	143
108	9184	0	143
108	11280	0	144
108	11672	0	144
108	12224	0	144
109	455	0	110
109	584	0	118
109	743	0	128
109	745	0	128
109	997	0	130
109	1174	0	131
109	1228	0	131
109	1352	0	133
109	2732	0	135
109	3200	0	135
109	5000	0	140
109	5708	0	140
109	6048	0	140
109	6516	0	143
109	6740	0	143
109	6968	0	143
109	8648	0	143
109	11328	0	144
109	11344	0	144
110	457	0	111
110	461	0	113
110	636	0	119
110	650	0	123
110	652	0	123
110	656	0	125
110	666	0	126
110	873	0	129
110	989	0	130
110	994	0	130
110	2030	0	133
110	2430	0	134
110	2954	0	135
110	3376	0	135
110	4864	0	140
110	6132	0	140
110	6148	0	140
110	6724	0	143
110	7336	0	143
111	458	0	112
111	460	0	113
111	586	0	118
111	651	0	123
111	877	0	129
111	2048	0	133
111	3204	0	135
111	3492	0	136
111	5404	0	140
111	5744	0	140
111	5840	0	140
111	6164	0	140
112	459	0	113
112	462	0	113
112	665	0	126
112	1190	0	131
112	3208	0	135
112	3436	0	136
112	4880	0	140
112	5772	0	140
112	5796	0	140
112	5824	0	140
112	6176	0	140
112	6188	0	140
112	6736	0	143
112	6972	0	143
113	463	0	114
113	466	0	115
113	587	0	118
113	996	0	130
113	4876	0	140
113	4888	0	140
113	5752	0	140
113	6056	0	140
113	8656	0	143
113	10512	0	144
113	11336	0	144
114	465	0	115
114	469	0	115
114	585	0	118
114	632	0	119
114	639	0	121
114	871	0	129
114	876	0	129
114	882	0	129
114	985	0	130
114	995	0	130
114	1170	0	131
114	1350	0	133
114	2036	0	133
114	2414	0	134
114	2938	0	135
114	3228	0	135
114	3488	0	136
114	5808	0	140
114	6036	0	140
114	6088	0	140
114	6160	0	140
114	6688	0	143
114	6976	0	143
114	7192	0	143
114	7296	0	143
114	7328	0	143
114	7424	0	143
114	7472	0	143
114	8664	0	143
114	10504	0	144
115	471	0	116
115	648	0	123
115	663	0	125
115	866	0	129
115	979	0	130
115	990	0	130
115	2014	0	133
115	2020	0	133
115	2038	0	133
115	2426	0	134
115	2434	0	134
115	2438	0	134
115	2948	0	135
115	3468	0	136
115	4912	0	140
115	5776	0	140
115	6092	0	140
115	6648	0	143
115	6676	0	143
115	6732	0	143
116	473	0	117
116	475	0	117
116	559	0	118
116	642	0	121
116	644	0	122
116	661	0	125
116	827	0	128
116	895	0	129
116	983	0	130
116	1334	0	133
116	1344	0	133
116	1658	0	133
116	2412	0	133
116	2552	0	134
116	2558	0	134
116	2916	0	135
116	3456	0	136
116	4068	0	140
116	4768	0	140
116	4992	0	140
116	6032	0	140
116	7256	0	143
116	7408	0	143
116	7464	0	143
116	9712	0	144
117	492	0	118
117	689	0	127
117	727	0	128
117	2628	0	134
117	3808	0	140
117	4696	0	140
117	4708	0	140
117	4980	0	140
117	6824	0	143
117	6896	0	143
117	6904	0	143
117	9136	0	143
117	11568	0	144
118	594	0	119
118	675	0	127
118	781	0	128
118	967	0	130
118	1976	0	133
118	2140	0	133
118	2154	0	133
118	2746	0	135
118	4048	0	140
118	7624	0	143
118	9168	0	143
118	9480	0	144
118	9528	0	144
118	10776	0	144
118	10848	0	144
118	10952	0	144
119	637	0	120
119	2956	0	135
119	5816	0	140
119	6096	0	140
119	6104	0	140
119	6644	0	143
120	638	0	121
120	863	0	129
120	865	0	129
120	868	0	129
120	1184	0	131
120	1188	0	131
120	2416	0	134
120	2424	0	134
120	2950	0	135
120	2960	0	135
120	3428	0	135
120	6184	0	140
120	6728	0	143
121	643	0	122
121	829	0	128
121	1634	0	133
121	1926	0	133
121	2314	0	133
121	5948	0	140
122	645	0	123
122	884	0	129
122	891	0	129
122	986	0	130
122	1338	0	133
122	1460	0	133
122	1576	0	133
122	2028	0	133
122	2922	0	135
122	3372	0	135
122	3392	0	135
122	4072	0	140
122	4744	0	140
122	6152	0	140
122	6348	0	140
122	7176	0	143
122	7400	0	143
123	653	0	124
123	993	0	130
123	2428	0	134
123	3472	0	136
123	4920	0	140
123	6068	0	140
123	6100	0	140
123	6672	0	143
124	654	0	125
124	3212	0	135
124	3484	0	136
124	4936	0	140
124	5784	0	140
124	5792	0	140
124	6640	0	143
124	7440	0	143
125	664	0	126
125	2034	0	133
125	2040	0	133
125	2436	0	134
125	2926	0	135
125	3224	0	135
125	4868	0	140
125	6040	0	140
125	6064	0	140
125	6084	0	140
125	6172	0	140
125	6180	0	140
125	6636	0	143
125	7200	0	143
125	10488	0	144
126	667	0	127
126	744	0	128
126	878	0	129
126	991	0	130
126	1180	0	131
126	2012	0	133
126	2022	0	133
126	2422	0	134
126	2928	0	135
126	3216	0	135
126	3440	0	136
126	4872	0	140
126	4908	0	140
126	4924	0	140
126	4940	0	140
126	5712	0	140
126	5740	0	140
126	5780	0	140
126	6044	0	140
126	6060	0	140
126	6072	0	140
126	6080	0	140
126	6116	0	140
126	6128	0	140
126	6744	0	143
126	7304	0	143
126	7352	0	143
127	712	0	128
127	826	0	128
127	1086	0	131
127	1622	0	133
127	1722	0	133
127	1800	0	133
127	1918	0	133
127	1922	0	133
127	2312	0	133
127	3692	0	136
128	860	0	129
128	4756	0	140
129	965	0	130
129	1010	0	130
129	1418	0	133
129	1956	0	133
129	3596	0	136
129	5476	0	140
129	7816	0	143
129	11264	0	144
130	1790	0	133
130	1924	0	133
130	5952	0	140
130	7008	0	143
130	8416	0	143
131	2032	0	133
131	5820	0	140
131	6108	0	140
132	2712	0	135
133	6708	0	143
133	7168	0	143
134	8224	0	143

