version 3
run General-40-20250917-22:37:06-66010
attr configname General
attr datetime 20250917-22:37:06
attr datetimef 20250917-223706
attr experiment General
attr inifile omnetpp.ini
attr iterationvars ""
attr iterationvarsd ""
attr iterationvarsf ""
attr measurement ""
attr network RGG
attr processid 66010
attr repetition 40
attr replication #40
attr resultdir results
attr runnumber 40
attr seedset 40
config network RGG
config seed-set 40
config num-rngs 1
config sim-time-limit 10s
config repeat 500
config **.node[*].xCor "uniform(0.0, 1.0, 0)"
config **.node[*].yCor "uniform(0.0, 1.0, 0)"
config *.numWalkers 1
config *.numNodes 100
config *.enableDuplication true
config *.rc 0.25

par RGG.node[0].port$o[0].channel typename "\"ned.IdealChannel\""
par RGG.node[4].port$o[0].channel typename "\"ned.IdealChannel\""
par RGG.node[0].port$o[1].channel typename "\"ned.IdealChannel\""
par RGG.node[20].port$o[0].channel typename "\"ned.IdealChannel\""
par RGG.node[0].port$o[2].channel typename "\"ned.IdealChannel\""
par RGG.node[21].port$o[0].channel typename "\"ned.IdealChannel\""
par RGG.node[0].port$o[3].channel typename "\"ned.IdealChannel\""
par RGG.node[25].port$o[0].channel typename "\"ned.IdealChannel\""
par RGG.node[0].port$o[4].channel typename "\"ned.IdealChannel\""
par RGG.node[31].port$o[0].channel typename "\"ned.IdealChannel\""
par RGG.node[0].port$o[5].channel typename "\"ned.IdealChannel\""
par RGG.node[33].port$o[0].channel typename "\"ned.IdealChannel\""
par RGG.node[0].port$o[6].channel typename "\"ned.IdealChannel\""
par RGG.node[34].port$o[0].channel typename "\"ned.IdealChannel\""
par RGG.node[0].port$o[7].channel typename "\"ned.IdealChannel\""
par RGG.node[39].port$o[0].channel typename "\"ned.IdealChannel\""
par RGG.node[0].port$o[8].channel typename "\"ned.IdealChannel\""
par RGG.node[41].port$o[0].channel typename "\"ned.IdealChannel\""
par RGG.node[0].port$o[9].channel typename "\"ned.IdealChannel\""
par RGG.node[47].port$o[0].channel typename "\"ned.IdealChannel\""
par RGG.node[0].port$o[10].channel typename "\"ned.IdealChannel\""
par RGG.node[58].port$o[0].channel typename "\"ned.IdealChannel\""
par RGG.node[0].port$o[11].channel typename "\"ned.IdealChannel\""
par RGG.node[59].port$o[0].channel typename "\"ned.IdealChannel\""
par RGG.node[0].port$o[12].channel typename "\"ned.IdealChannel\""
par RGG.node[62].port$o[0].channel typename "\"ned.IdealChannel\""
par RGG.node[0].port$o[13].channel typename "\"ned.IdealChannel\""
par RGG.node[82].port$o[0].channel typename "\"ned.IdealChannel\""
par RGG.node[0].port$o[14].channel typename "\"ned.IdealChannel\""
par RGG.node[96].port$o[0].channel typename "\"ned.IdealChannel\""
par RGG.node[0].port$o[15].channel typename "\"ned.IdealChannel\""
par RGG.node[98].port$o[0].channel typename "\"ned.IdealChannel\""
par RGG.node[1].port$o[0].channel typename "\"ned.IdealChannel\""
par RGG.node[3].port$o[0].channel typename "\"ned.IdealChannel\""
par RGG.node[1].port$o[1].channel typename "\"ned.IdealChannel\""
par RGG.node[5].port$o[0].channel typename "\"ned.IdealChannel\""
par RGG.node[1].port$o[2].channel typename "\"ned.IdealChannel\""
par RGG.node[14].port$o[0].channel typename "\"ned.IdealChannel\""
par RGG.node[1].port$o[3].channel typename "\"ned.IdealChannel\""
par RGG.node[40].port$o[0].channel typename "\"ned.IdealChannel\""
par RGG.node[1].port$o[4].channel typename "\"ned.IdealChannel\""
par RGG.node[46].port$o[0].channel typename "\"ned.IdealChannel\""
par RGG.node[1].port$o[5].channel typename "\"ned.IdealChannel\""
par RGG.node[60].port$o[0].channel typename "\"ned.IdealChannel\""
par RGG.node[1].port$o[6].channel typename "\"ned.IdealChannel\""
par RGG.node[65].port$o[0].channel typename "\"ned.IdealChannel\""
par RGG.node[1].port$o[7].channel typename "\"ned.IdealChannel\""
par RGG.node[67].port$o[0].channel typename "\"ned.IdealChannel\""
par RGG.node[1].port$o[8].channel typename "\"ned.IdealChannel\""
par RGG.node[78].port$o[0].channel typename "\"ned.IdealChannel\""
par RGG.node[1].port$o[9].channel typename "\"ned.IdealChannel\""
par RGG.node[81].port$o[0].channel typename "\"ned.IdealChannel\""
par RGG.node[1].port$o[10].channel typename "\"ned.IdealChannel\""
par RGG.node[88].port$o[0].channel typename "\"ned.IdealChannel\""
par RGG.node[2].port$o[0].channel typename "\"ned.IdealChannel\""
par RGG.node[9].port$o[0].channel typename "\"ned.IdealChannel\""
par RGG.node[2].port$o[1].channel typename "\"ned.IdealChannel\""
par RGG.node[11].port$o[0].channel typename "\"ned.IdealChannel\""
par RGG.node[2].port$o[2].channel typename "\"ned.IdealChannel\""
par RGG.node[18].port$o[0].channel typename "\"ned.IdealChannel\""
par RGG.node[2].port$o[3].channel typename "\"ned.IdealChannel\""
par RGG.node[22].port$o[0].channel typename "\"ned.IdealChannel\""
par RGG.node[2].port$o[4].channel typename "\"ned.IdealChannel\""
par RGG.node[24].port$o[0].channel typename "\"ned.IdealChannel\""
par RGG.node[2].port$o[5].channel typename "\"ned.IdealChannel\""
par RGG.node[29].port$o[0].channel typename "\"ned.IdealChannel\""
par RGG.node[2].port$o[6].channel typename "\"ned.IdealChannel\""
par RGG.node[33].port$o[1].channel typename "\"ned.IdealChannel\""
par RGG.node[2].port$o[7].channel typename "\"ned.IdealChannel\""
par RGG.node[42].port$o[0].channel typename "\"ned.IdealChannel\""
par RGG.node[2].port$o[8].channel typename "\"ned.IdealChannel\""
par RGG.node[45].port$o[0].channel typename "\"ned.IdealChannel\""
par RGG.node[2].port$o[9].channel typename "\"ned.IdealChannel\""
par RGG.node[48].port$o[0].channel typename "\"ned.IdealChannel\""
par RGG.node[2].port$o[10].channel typename "\"ned.IdealChannel\""
par RGG.node[73].port$o[0].channel typename "\"ned.IdealChannel\""
par RGG.node[2].port$o[11].channel typename "\"ned.IdealChannel\""
par RGG.node[83].port$o[0].channel typename "\"ned.IdealChannel\""
par RGG.node[2].port$o[12].channel typename "\"ned.IdealChannel\""
par RGG.node[87].port$o[0].channel typename "\"ned.IdealChannel\""
par RGG.node[2].port$o[13].channel typename "\"ned.IdealChannel\""
par RGG.node[89].port$o[0].channel typename "\"ned.IdealChannel\""
par RGG.node[2].port$o[14].channel typename "\"ned.IdealChannel\""
par RGG.node[92].port$o[0].channel typename "\"ned.IdealChannel\""
par RGG.node[2].port$o[15].channel typename "\"ned.IdealChannel\""
par RGG.node[97].port$o[0].channel typename "\"ned.IdealChannel\""
par RGG.node[3].port$o[1].channel typename "\"ned.IdealChannel\""
par RGG.node[5].port$o[1].channel typename "\"ned.IdealChannel\""
par RGG.node[3].port$o[2].channel typename "\"ned.IdealChannel\""
par RGG.node[6].port$o[0].channel typename "\"ned.IdealChannel\""
par RGG.node[3].port$o[3].channel typename "\"ned.IdealChannel\""
par RGG.node[28].port$o[0].channel typename "\"ned.IdealChannel\""
par RGG.node[3].port$o[4].channel typename "\"ned.IdealChannel\""
par RGG.node[38].port$o[0].channel typename "\"ned.IdealChannel\""
par RGG.node[3].port$o[5].channel typename "\"ned.IdealChannel\""
par RGG.node[53].port$o[0].channel typename "\"ned.IdealChannel\""
par RGG.node[3].port$o[6].channel typename "\"ned.IdealChannel\""
par RGG.node[57].port$o[0].channel typename "\"ned.IdealChannel\""
par RGG.node[3].port$o[7].channel typename "\"ned.IdealChannel\""
par RGG.node[60].port$o[1].channel typename "\"ned.IdealChannel\""
par RGG.node[3].port$o[8].channel typename "\"ned.IdealChannel\""
par RGG.node[61].port$o[0].channel typename "\"ned.IdealChannel\""
par RGG.node[3].port$o[9].channel typename "\"ned.IdealChannel\""
par RGG.node[65].port$o[1].channel typename "\"ned.IdealChannel\""
par RGG.node[3].port$o[10].channel typename "\"ned.IdealChannel\""
par RGG.node[67].port$o[1].channel typename "\"ned.IdealChannel\""
par RGG.node[3].port$o[11].channel typename "\"ned.IdealChannel\""
par RGG.node[70].port$o[0].channel typename "\"ned.IdealChannel\""
par RGG.node[3].port$o[12].channel typename "\"ned.IdealChannel\""
par RGG.node[72].port$o[0].channel typename "\"ned.IdealChannel\""
par RGG.node[3].port$o[13].channel typename "\"ned.IdealChannel\""
par RGG.node[81].port$o[1].channel typename "\"ned.IdealChannel\""
par RGG.node[3].port$o[14].channel typename "\"ned.IdealChannel\""
par RGG.node[84].port$o[0].channel typename "\"ned.IdealChannel\""
par RGG.node[3].port$o[15].channel typename "\"ned.IdealChannel\""
par RGG.node[86].port$o[0].channel typename "\"ned.IdealChannel\""
par RGG.node[3].port$o[16].channel typename "\"ned.IdealChannel\""
par RGG.node[88].port$o[1].channel typename "\"ned.IdealChannel\""
par RGG.node[3].port$o[17].channel typename "\"ned.IdealChannel\""
par RGG.node[90].port$o[0].channel typename "\"ned.IdealChannel\""
par RGG.node[3].port$o[18].channel typename "\"ned.IdealChannel\""
par RGG.node[99].port$o[0].channel typename "\"ned.IdealChannel\""
par RGG.node[4].port$o[1].channel typename "\"ned.IdealChannel\""
par RGG.node[21].port$o[1].channel typename "\"ned.IdealChannel\""
par RGG.node[4].port$o[2].channel typename "\"ned.IdealChannel\""
par RGG.node[22].port$o[1].channel typename "\"ned.IdealChannel\""
par RGG.node[4].port$o[3].channel typename "\"ned.IdealChannel\""
par RGG.node[25].port$o[1].channel typename "\"ned.IdealChannel\""
par RGG.node[4].port$o[4].channel typename "\"ned.IdealChannel\""
par RGG.node[31].port$o[1].channel typename "\"ned.IdealChannel\""
par RGG.node[4].port$o[5].channel typename "\"ned.IdealChannel\""
par RGG.node[33].port$o[2].channel typename "\"ned.IdealChannel\""
par RGG.node[4].port$o[6].channel typename "\"ned.IdealChannel\""
par RGG.node[39].port$o[1].channel typename "\"ned.IdealChannel\""
par RGG.node[4].port$o[7].channel typename "\"ned.IdealChannel\""
par RGG.node[41].port$o[1].channel typename "\"ned.IdealChannel\""
par RGG.node[4].port$o[8].channel typename "\"ned.IdealChannel\""
par RGG.node[47].port$o[1].channel typename "\"ned.IdealChannel\""
par RGG.node[4].port$o[9].channel typename "\"ned.IdealChannel\""
par RGG.node[58].port$o[1].channel typename "\"ned.IdealChannel\""
par RGG.node[4].port$o[10].channel typename "\"ned.IdealChannel\""
par RGG.node[62].port$o[1].channel typename "\"ned.IdealChannel\""
par RGG.node[4].port$o[11].channel typename "\"ned.IdealChannel\""
par RGG.node[82].port$o[1].channel typename "\"ned.IdealChannel\""
par RGG.node[4].port$o[12].channel typename "\"ned.IdealChannel\""
par RGG.node[97].port$o[1].channel typename "\"ned.IdealChannel\""
par RGG.node[4].port$o[13].channel typename "\"ned.IdealChannel\""
par RGG.node[98].port$o[1].channel typename "\"ned.IdealChannel\""
par RGG.node[5].port$o[2].channel typename "\"ned.IdealChannel\""
par RGG.node[6].port$o[1].channel typename "\"ned.IdealChannel\""
par RGG.node[5].port$o[3].channel typename "\"ned.IdealChannel\""
par RGG.node[28].port$o[1].channel typename "\"ned.IdealChannel\""
par RGG.node[5].port$o[4].channel typename "\"ned.IdealChannel\""
par RGG.node[38].port$o[1].channel typename "\"ned.IdealChannel\""
par RGG.node[5].port$o[5].channel typename "\"ned.IdealChannel\""
par RGG.node[53].port$o[1].channel typename "\"ned.IdealChannel\""
par RGG.node[5].port$o[6].channel typename "\"ned.IdealChannel\""
par RGG.node[57].port$o[1].channel typename "\"ned.IdealChannel\""
par RGG.node[5].port$o[7].channel typename "\"ned.IdealChannel\""
par RGG.node[60].port$o[2].channel typename "\"ned.IdealChannel\""
par RGG.node[5].port$o[8].channel typename "\"ned.IdealChannel\""
par RGG.node[61].port$o[1].channel typename "\"ned.IdealChannel\""
par RGG.node[5].port$o[9].channel typename "\"ned.IdealChannel\""
par RGG.node[63].port$o[0].channel typename "\"ned.IdealChannel\""
par RGG.node[5].port$o[10].channel typename "\"ned.IdealChannel\""
par RGG.node[65].port$o[2].channel typename "\"ned.IdealChannel\""
par RGG.node[5].port$o[11].channel typename "\"ned.IdealChannel\""
par RGG.node[67].port$o[2].channel typename "\"ned.IdealChannel\""
par RGG.node[5].port$o[12].channel typename "\"ned.IdealChannel\""
par RGG.node[70].port$o[1].channel typename "\"ned.IdealChannel\""
par RGG.node[5].port$o[13].channel typename "\"ned.IdealChannel\""
par RGG.node[72].port$o[1].channel typename "\"ned.IdealChannel\""
par RGG.node[5].port$o[14].channel typename "\"ned.IdealChannel\""
par RGG.node[81].port$o[2].channel typename "\"ned.IdealChannel\""
par RGG.node[5].port$o[15].channel typename "\"ned.IdealChannel\""
par RGG.node[84].port$o[1].channel typename "\"ned.IdealChannel\""
par RGG.node[5].port$o[16].channel typename "\"ned.IdealChannel\""
par RGG.node[86].port$o[1].channel typename "\"ned.IdealChannel\""
par RGG.node[5].port$o[17].channel typename "\"ned.IdealChannel\""
par RGG.node[88].port$o[2].channel typename "\"ned.IdealChannel\""
par RGG.node[5].port$o[18].channel typename "\"ned.IdealChannel\""
par RGG.node[90].port$o[1].channel typename "\"ned.IdealChannel\""
par RGG.node[5].port$o[19].channel typename "\"ned.IdealChannel\""
par RGG.node[94].port$o[0].channel typename "\"ned.IdealChannel\""
par RGG.node[5].port$o[20].channel typename "\"ned.IdealChannel\""
par RGG.node[99].port$o[1].channel typename "\"ned.IdealChannel\""
par RGG.node[6].port$o[2].channel typename "\"ned.IdealChannel\""
par RGG.node[13].port$o[0].channel typename "\"ned.IdealChannel\""
par RGG.node[6].port$o[3].channel typename "\"ned.IdealChannel\""
par RGG.node[26].port$o[0].channel typename "\"ned.IdealChannel\""
par RGG.node[6].port$o[4].channel typename "\"ned.IdealChannel\""
par RGG.node[28].port$o[2].channel typename "\"ned.IdealChannel\""
par RGG.node[6].port$o[5].channel typename "\"ned.IdealChannel\""
par RGG.node[30].port$o[0].channel typename "\"ned.IdealChannel\""
par RGG.node[6].port$o[6].channel typename "\"ned.IdealChannel\""
par RGG.node[36].port$o[0].channel typename "\"ned.IdealChannel\""
par RGG.node[6].port$o[7].channel typename "\"ned.IdealChannel\""
par RGG.node[38].port$o[2].channel typename "\"ned.IdealChannel\""
par RGG.node[6].port$o[8].channel typename "\"ned.IdealChannel\""
par RGG.node[44].port$o[0].channel typename "\"ned.IdealChannel\""
par RGG.node[6].port$o[9].channel typename "\"ned.IdealChannel\""
par RGG.node[53].port$o[2].channel typename "\"ned.IdealChannel\""
par RGG.node[6].port$o[10].channel typename "\"ned.IdealChannel\""
par RGG.node[57].port$o[2].channel typename "\"ned.IdealChannel\""
par RGG.node[6].port$o[11].channel typename "\"ned.IdealChannel\""
par RGG.node[61].port$o[2].channel typename "\"ned.IdealChannel\""
par RGG.node[6].port$o[12].channel typename "\"ned.IdealChannel\""
par RGG.node[63].port$o[1].channel typename "\"ned.IdealChannel\""
par RGG.node[6].port$o[13].channel typename "\"ned.IdealChannel\""
par RGG.node[68].port$o[0].channel typename "\"ned.IdealChannel\""
par RGG.node[6].port$o[14].channel typename "\"ned.IdealChannel\""
par RGG.node[70].port$o[2].channel typename "\"ned.IdealChannel\""
par RGG.node[6].port$o[15].channel typename "\"ned.IdealChannel\""
par RGG.node[71].port$o[0].channel typename "\"ned.IdealChannel\""
par RGG.node[6].port$o[16].channel typename "\"ned.IdealChannel\""
par RGG.node[72].port$o[2].channel typename "\"ned.IdealChannel\""
par RGG.node[6].port$o[17].channel typename "\"ned.IdealChannel\""
par RGG.node[79].port$o[0].channel typename "\"ned.IdealChannel\""
par RGG.node[6].port$o[18].channel typename "\"ned.IdealChannel\""
par RGG.node[84].port$o[2].channel typename "\"ned.IdealChannel\""
par RGG.node[6].port$o[19].channel typename "\"ned.IdealChannel\""
par RGG.node[85].port$o[0].channel typename "\"ned.IdealChannel\""
par RGG.node[6].port$o[20].channel typename "\"ned.IdealChannel\""
par RGG.node[86].port$o[2].channel typename "\"ned.IdealChannel\""
par RGG.node[6].port$o[21].channel typename "\"ned.IdealChannel\""
par RGG.node[90].port$o[2].channel typename "\"ned.IdealChannel\""
par RGG.node[6].port$o[22].channel typename "\"ned.IdealChannel\""
par RGG.node[94].port$o[1].channel typename "\"ned.IdealChannel\""
par RGG.node[7].port$o[0].channel typename "\"ned.IdealChannel\""
par RGG.node[11].port$o[1].channel typename "\"ned.IdealChannel\""
par RGG.node[7].port$o[1].channel typename "\"ned.IdealChannel\""
par RGG.node[16].port$o[0].channel typename "\"ned.IdealChannel\""
par RGG.node[7].port$o[2].channel typename "\"ned.IdealChannel\""
par RGG.node[18].port$o[1].channel typename "\"ned.IdealChannel\""
par RGG.node[7].port$o[3].channel typename "\"ned.IdealChannel\""
par RGG.node[22].port$o[2].channel typename "\"ned.IdealChannel\""
par RGG.node[7].port$o[4].channel typename "\"ned.IdealChannel\""
par RGG.node[48].port$o[1].channel typename "\"ned.IdealChannel\""
par RGG.node[7].port$o[5].channel typename "\"ned.IdealChannel\""
par RGG.node[51].port$o[0].channel typename "\"ned.IdealChannel\""
par RGG.node[7].port$o[6].channel typename "\"ned.IdealChannel\""
par RGG.node[58].port$o[2].channel typename "\"ned.IdealChannel\""
par RGG.node[7].port$o[7].channel typename "\"ned.IdealChannel\""
par RGG.node[83].port$o[1].channel typename "\"ned.IdealChannel\""
par RGG.node[7].port$o[8].channel typename "\"ned.IdealChannel\""
par RGG.node[98].port$o[2].channel typename "\"ned.IdealChannel\""
par RGG.node[8].port$o[0].channel typename "\"ned.IdealChannel\""
par RGG.node[13].port$o[1].channel typename "\"ned.IdealChannel\""
par RGG.node[8].port$o[1].channel typename "\"ned.IdealChannel\""
par RGG.node[23].port$o[0].channel typename "\"ned.IdealChannel\""
par RGG.node[8].port$o[2].channel typename "\"ned.IdealChannel\""
par RGG.node[26].port$o[1].channel typename "\"ned.IdealChannel\""
par RGG.node[8].port$o[3].channel typename "\"ned.IdealChannel\""
par RGG.node[30].port$o[1].channel typename "\"ned.IdealChannel\""
par RGG.node[8].port$o[4].channel typename "\"ned.IdealChannel\""
par RGG.node[36].port$o[1].channel typename "\"ned.IdealChannel\""
par RGG.node[8].port$o[5].channel typename "\"ned.IdealChannel\""
par RGG.node[44].port$o[1].channel typename "\"ned.IdealChannel\""
par RGG.node[8].port$o[6].channel typename "\"ned.IdealChannel\""
par RGG.node[49].port$o[0].channel typename "\"ned.IdealChannel\""
par RGG.node[8].port$o[7].channel typename "\"ned.IdealChannel\""
par RGG.node[68].port$o[1].channel typename "\"ned.IdealChannel\""
par RGG.node[8].port$o[8].channel typename "\"ned.IdealChannel\""
par RGG.node[69].port$o[0].channel typename "\"ned.IdealChannel\""
par RGG.node[8].port$o[9].channel typename "\"ned.IdealChannel\""
par RGG.node[74].port$o[0].channel typename "\"ned.IdealChannel\""
par RGG.node[8].port$o[10].channel typename "\"ned.IdealChannel\""
par RGG.node[77].port$o[0].channel typename "\"ned.IdealChannel\""
par RGG.node[8].port$o[11].channel typename "\"ned.IdealChannel\""
par RGG.node[79].port$o[1].channel typename "\"ned.IdealChannel\""
par RGG.node[8].port$o[12].channel typename "\"ned.IdealChannel\""
par RGG.node[85].port$o[1].channel typename "\"ned.IdealChannel\""
par RGG.node[9].port$o[1].channel typename "\"ned.IdealChannel\""
par RGG.node[12].port$o[0].channel typename "\"ned.IdealChannel\""
par RGG.node[9].port$o[2].channel typename "\"ned.IdealChannel\""
par RGG.node[13].port$o[2].channel typename "\"ned.IdealChannel\""
par RGG.node[9].port$o[3].channel typename "\"ned.IdealChannel\""
par RGG.node[15].port$o[0].channel typename "\"ned.IdealChannel\""
par RGG.node[9].port$o[4].channel typename "\"ned.IdealChannel\""
par RGG.node[21].port$o[2].channel typename "\"ned.IdealChannel\""
par RGG.node[9].port$o[5].channel typename "\"ned.IdealChannel\""
par RGG.node[22].port$o[3].channel typename "\"ned.IdealChannel\""
par RGG.node[9].port$o[6].channel typename "\"ned.IdealChannel\""
par RGG.node[24].port$o[1].channel typename "\"ned.IdealChannel\""
par RGG.node[9].port$o[7].channel typename "\"ned.IdealChannel\""
par RGG.node[25].port$o[2].channel typename "\"ned.IdealChannel\""
par RGG.node[9].port$o[8].channel typename "\"ned.IdealChannel\""
par RGG.node[27].port$o[0].channel typename "\"ned.IdealChannel\""
par RGG.node[9].port$o[9].channel typename "\"ned.IdealChannel\""
par RGG.node[29].port$o[1].channel typename "\"ned.IdealChannel\""
par RGG.node[9].port$o[10].channel typename "\"ned.IdealChannel\""
par RGG.node[30].port$o[2].channel typename "\"ned.IdealChannel\""
par RGG.node[9].port$o[11].channel typename "\"ned.IdealChannel\""
par RGG.node[33].port$o[3].channel typename "\"ned.IdealChannel\""
par RGG.node[9].port$o[12].channel typename "\"ned.IdealChannel\""
par RGG.node[41].port$o[2].channel typename "\"ned.IdealChannel\""
par RGG.node[9].port$o[13].channel typename "\"ned.IdealChannel\""
par RGG.node[45].port$o[1].channel typename "\"ned.IdealChannel\""
par RGG.node[9].port$o[14].channel typename "\"ned.IdealChannel\""
par RGG.node[47].port$o[2].channel typename "\"ned.IdealChannel\""
par RGG.node[9].port$o[15].channel typename "\"ned.IdealChannel\""
par RGG.node[48].port$o[2].channel typename "\"ned.IdealChannel\""
par RGG.node[9].port$o[16].channel typename "\"ned.IdealChannel\""
par RGG.node[56].port$o[0].channel typename "\"ned.IdealChannel\""
par RGG.node[9].port$o[17].channel typename "\"ned.IdealChannel\""
par RGG.node[69].port$o[1].channel typename "\"ned.IdealChannel\""
par RGG.node[9].port$o[18].channel typename "\"ned.IdealChannel\""
par RGG.node[71].port$o[1].channel typename "\"ned.IdealChannel\""
par RGG.node[9].port$o[19].channel typename "\"ned.IdealChannel\""
par RGG.node[82].port$o[2].channel typename "\"ned.IdealChannel\""
par RGG.node[9].port$o[20].channel typename "\"ned.IdealChannel\""
par RGG.node[89].port$o[1].channel typename "\"ned.IdealChannel\""
par RGG.node[9].port$o[21].channel typename "\"ned.IdealChannel\""
par RGG.node[92].port$o[1].channel typename "\"ned.IdealChannel\""
par RGG.node[9].port$o[22].channel typename "\"ned.IdealChannel\""
par RGG.node[97].port$o[2].channel typename "\"ned.IdealChannel\""
par RGG.node[10].port$o[0].channel typename "\"ned.IdealChannel\""
par RGG.node[12].port$o[1].channel typename "\"ned.IdealChannel\""
par RGG.node[10].port$o[1].channel typename "\"ned.IdealChannel\""
par RGG.node[15].port$o[1].channel typename "\"ned.IdealChannel\""
par RGG.node[10].port$o[2].channel typename "\"ned.IdealChannel\""
par RGG.node[24].port$o[2].channel typename "\"ned.IdealChannel\""
par RGG.node[10].port$o[3].channel typename "\"ned.IdealChannel\""
par RGG.node[27].port$o[1].channel typename "\"ned.IdealChannel\""
par RGG.node[10].port$o[4].channel typename "\"ned.IdealChannel\""
par RGG.node[29].port$o[2].channel typename "\"ned.IdealChannel\""
par RGG.node[10].port$o[5].channel typename "\"ned.IdealChannel\""
par RGG.node[50].port$o[0].channel typename "\"ned.IdealChannel\""
par RGG.node[10].port$o[6].channel typename "\"ned.IdealChannel\""
par RGG.node[52].port$o[0].channel typename "\"ned.IdealChannel\""
par RGG.node[10].port$o[7].channel typename "\"ned.IdealChannel\""
par RGG.node[56].port$o[1].channel typename "\"ned.IdealChannel\""
par RGG.node[10].port$o[8].channel typename "\"ned.IdealChannel\""
par RGG.node[89].port$o[2].channel typename "\"ned.IdealChannel\""
par RGG.node[10].port$o[9].channel typename "\"ned.IdealChannel\""
par RGG.node[92].port$o[2].channel typename "\"ned.IdealChannel\""
par RGG.node[11].port$o[2].channel typename "\"ned.IdealChannel\""
par RGG.node[16].port$o[1].channel typename "\"ned.IdealChannel\""
par RGG.node[11].port$o[3].channel typename "\"ned.IdealChannel\""
par RGG.node[18].port$o[2].channel typename "\"ned.IdealChannel\""
par RGG.node[11].port$o[4].channel typename "\"ned.IdealChannel\""
par RGG.node[22].port$o[4].channel typename "\"ned.IdealChannel\""
par RGG.node[11].port$o[5].channel typename "\"ned.IdealChannel\""
par RGG.node[25].port$o[3].channel typename "\"ned.IdealChannel\""
par RGG.node[11].port$o[6].channel typename "\"ned.IdealChannel\""
par RGG.node[33].port$o[4].channel typename "\"ned.IdealChannel\""
par RGG.node[11].port$o[7].channel typename "\"ned.IdealChannel\""
par RGG.node[48].port$o[3].channel typename "\"ned.IdealChannel\""
par RGG.node[11].port$o[8].channel typename "\"ned.IdealChannel\""
par RGG.node[58].port$o[3].channel typename "\"ned.IdealChannel\""
par RGG.node[11].port$o[9].channel typename "\"ned.IdealChannel\""
par RGG.node[83].port$o[2].channel typename "\"ned.IdealChannel\""
par RGG.node[11].port$o[10].channel typename "\"ned.IdealChannel\""
par RGG.node[98].port$o[3].channel typename "\"ned.IdealChannel\""
par RGG.node[12].port$o[2].channel typename "\"ned.IdealChannel\""
par RGG.node[13].port$o[3].channel typename "\"ned.IdealChannel\""
par RGG.node[12].port$o[3].channel typename "\"ned.IdealChannel\""
par RGG.node[15].port$o[2].channel typename "\"ned.IdealChannel\""
par RGG.node[12].port$o[4].channel typename "\"ned.IdealChannel\""
par RGG.node[23].port$o[1].channel typename "\"ned.IdealChannel\""
par RGG.node[12].port$o[5].channel typename "\"ned.IdealChannel\""
par RGG.node[24].port$o[3].channel typename "\"ned.IdealChannel\""
par RGG.node[12].port$o[6].channel typename "\"ned.IdealChannel\""
par RGG.node[27].port$o[2].channel typename "\"ned.IdealChannel\""
par RGG.node[12].port$o[7].channel typename "\"ned.IdealChannel\""
par RGG.node[29].port$o[3].channel typename "\"ned.IdealChannel\""
par RGG.node[12].port$o[8].channel typename "\"ned.IdealChannel\""
par RGG.node[30].port$o[3].channel typename "\"ned.IdealChannel\""
par RGG.node[12].port$o[9].channel typename "\"ned.IdealChannel\""
par RGG.node[44].port$o[2].channel typename "\"ned.IdealChannel\""
par RGG.node[12].port$o[10].channel typename "\"ned.IdealChannel\""
par RGG.node[45].port$o[2].channel typename "\"ned.IdealChannel\""
par RGG.node[12].port$o[11].channel typename "\"ned.IdealChannel\""
par RGG.node[47].port$o[3].channel typename "\"ned.IdealChannel\""
par RGG.node[12].port$o[12].channel typename "\"ned.IdealChannel\""
par RGG.node[49].port$o[1].channel typename "\"ned.IdealChannel\""
par RGG.node[12].port$o[13].channel typename "\"ned.IdealChannel\""
par RGG.node[50].port$o[1].channel typename "\"ned.IdealChannel\""
par RGG.node[12].port$o[14].channel typename "\"ned.IdealChannel\""
par RGG.node[52].port$o[1].channel typename "\"ned.IdealChannel\""
par RGG.node[12].port$o[15].channel typename "\"ned.IdealChannel\""
par RGG.node[56].port$o[2].channel typename "\"ned.IdealChannel\""
par RGG.node[12].port$o[16].channel typename "\"ned.IdealChannel\""
par RGG.node[69].port$o[2].channel typename "\"ned.IdealChannel\""
par RGG.node[12].port$o[17].channel typename "\"ned.IdealChannel\""
par RGG.node[71].port$o[2].channel typename "\"ned.IdealChannel\""
par RGG.node[12].port$o[18].channel typename "\"ned.IdealChannel\""
par RGG.node[74].port$o[1].channel typename "\"ned.IdealChannel\""
par RGG.node[12].port$o[19].channel typename "\"ned.IdealChannel\""
par RGG.node[77].port$o[1].channel typename "\"ned.IdealChannel\""
par RGG.node[12].port$o[20].channel typename "\"ned.IdealChannel\""
par RGG.node[89].port$o[3].channel typename "\"ned.IdealChannel\""
par RGG.node[12].port$o[21].channel typename "\"ned.IdealChannel\""
par RGG.node[92].port$o[3].channel typename "\"ned.IdealChannel\""
par RGG.node[12].port$o[22].channel typename "\"ned.IdealChannel\""
par RGG.node[97].port$o[3].channel typename "\"ned.IdealChannel\""
par RGG.node[13].port$o[4].channel typename "\"ned.IdealChannel\""
par RGG.node[15].port$o[3].channel typename "\"ned.IdealChannel\""
par RGG.node[13].port$o[5].channel typename "\"ned.IdealChannel\""
par RGG.node[26].port$o[2].channel typename "\"ned.IdealChannel\""
par RGG.node[13].port$o[6].channel typename "\"ned.IdealChannel\""
par RGG.node[27].port$o[3].channel typename "\"ned.IdealChannel\""
par RGG.node[13].port$o[7].channel typename "\"ned.IdealChannel\""
par RGG.node[30].port$o[4].channel typename "\"ned.IdealChannel\""
par RGG.node[13].port$o[8].channel typename "\"ned.IdealChannel\""
par RGG.node[44].port$o[3].channel typename "\"ned.IdealChannel\""
par RGG.node[13].port$o[9].channel typename "\"ned.IdealChannel\""
par RGG.node[45].port$o[3].channel typename "\"ned.IdealChannel\""
par RGG.node[13].port$o[10].channel typename "\"ned.IdealChannel\""
par RGG.node[49].port$o[2].channel typename "\"ned.IdealChannel\""
par RGG.node[13].port$o[11].channel typename "\"ned.IdealChannel\""
par RGG.node[52].port$o[2].channel typename "\"ned.IdealChannel\""
par RGG.node[13].port$o[12].channel typename "\"ned.IdealChannel\""
par RGG.node[53].port$o[3].channel typename "\"ned.IdealChannel\""
par RGG.node[13].port$o[13].channel typename "\"ned.IdealChannel\""
par RGG.node[68].port$o[2].channel typename "\"ned.IdealChannel\""
par RGG.node[13].port$o[14].channel typename "\"ned.IdealChannel\""
par RGG.node[69].port$o[3].channel typename "\"ned.IdealChannel\""
par RGG.node[13].port$o[15].channel typename "\"ned.IdealChannel\""
par RGG.node[71].port$o[3].channel typename "\"ned.IdealChannel\""
par RGG.node[13].port$o[16].channel typename "\"ned.IdealChannel\""
par RGG.node[74].port$o[2].channel typename "\"ned.IdealChannel\""
par RGG.node[13].port$o[17].channel typename "\"ned.IdealChannel\""
par RGG.node[77].port$o[2].channel typename "\"ned.IdealChannel\""
par RGG.node[13].port$o[18].channel typename "\"ned.IdealChannel\""
par RGG.node[79].port$o[2].channel typename "\"ned.IdealChannel\""
par RGG.node[13].port$o[19].channel typename "\"ned.IdealChannel\""
par RGG.node[85].port$o[2].channel typename "\"ned.IdealChannel\""
par RGG.node[13].port$o[20].channel typename "\"ned.IdealChannel\""
par RGG.node[90].port$o[3].channel typename "\"ned.IdealChannel\""
par RGG.node[13].port$o[21].channel typename "\"ned.IdealChannel\""
par RGG.node[97].port$o[4].channel typename "\"ned.IdealChannel\""
par RGG.node[14].port$o[1].channel typename "\"ned.IdealChannel\""
par RGG.node[40].port$o[1].channel typename "\"ned.IdealChannel\""
par RGG.node[14].port$o[2].channel typename "\"ned.IdealChannel\""
par RGG.node[46].port$o[1].channel typename "\"ned.IdealChannel\""
par RGG.node[14].port$o[3].channel typename "\"ned.IdealChannel\""
par RGG.node[60].port$o[3].channel typename "\"ned.IdealChannel\""
par RGG.node[14].port$o[4].channel typename "\"ned.IdealChannel\""
par RGG.node[64].port$o[0].channel typename "\"ned.IdealChannel\""
par RGG.node[14].port$o[5].channel typename "\"ned.IdealChannel\""
par RGG.node[67].port$o[3].channel typename "\"ned.IdealChannel\""
par RGG.node[14].port$o[6].channel typename "\"ned.IdealChannel\""
par RGG.node[78].port$o[1].channel typename "\"ned.IdealChannel\""
par RGG.node[14].port$o[7].channel typename "\"ned.IdealChannel\""
par RGG.node[81].port$o[3].channel typename "\"ned.IdealChannel\""
par RGG.node[14].port$o[8].channel typename "\"ned.IdealChannel\""
par RGG.node[88].port$o[3].channel typename "\"ned.IdealChannel\""
par RGG.node[15].port$o[4].channel typename "\"ned.IdealChannel\""
par RGG.node[23].port$o[2].channel typename "\"ned.IdealChannel\""
par RGG.node[15].port$o[5].channel typename "\"ned.IdealChannel\""
par RGG.node[24].port$o[4].channel typename "\"ned.IdealChannel\""
par RGG.node[15].port$o[6].channel typename "\"ned.IdealChannel\""
par RGG.node[27].port$o[4].channel typename "\"ned.IdealChannel\""
par RGG.node[15].port$o[7].channel typename "\"ned.IdealChannel\""
par RGG.node[29].port$o[4].channel typename "\"ned.IdealChannel\""
par RGG.node[15].port$o[8].channel typename "\"ned.IdealChannel\""
par RGG.node[45].port$o[4].channel typename "\"ned.IdealChannel\""
par RGG.node[15].port$o[9].channel typename "\"ned.IdealChannel\""
par RGG.node[49].port$o[3].channel typename "\"ned.IdealChannel\""
par RGG.node[15].port$o[10].channel typename "\"ned.IdealChannel\""
par RGG.node[50].port$o[2].channel typename "\"ned.IdealChannel\""
par RGG.node[15].port$o[11].channel typename "\"ned.IdealChannel\""
par RGG.node[52].port$o[3].channel typename "\"ned.IdealChannel\""
par RGG.node[15].port$o[12].channel typename "\"ned.IdealChannel\""
par RGG.node[56].port$o[3].channel typename "\"ned.IdealChannel\""
par RGG.node[15].port$o[13].channel typename "\"ned.IdealChannel\""
par RGG.node[69].port$o[4].channel typename "\"ned.IdealChannel\""
par RGG.node[15].port$o[14].channel typename "\"ned.IdealChannel\""
par RGG.node[74].port$o[3].channel typename "\"ned.IdealChannel\""
par RGG.node[15].port$o[15].channel typename "\"ned.IdealChannel\""
par RGG.node[77].port$o[3].channel typename "\"ned.IdealChannel\""
par RGG.node[15].port$o[16].channel typename "\"ned.IdealChannel\""
par RGG.node[89].port$o[4].channel typename "\"ned.IdealChannel\""
par RGG.node[15].port$o[17].channel typename "\"ned.IdealChannel\""
par RGG.node[92].port$o[4].channel typename "\"ned.IdealChannel\""
par RGG.node[16].port$o[2].channel typename "\"ned.IdealChannel\""
par RGG.node[31].port$o[2].channel typename "\"ned.IdealChannel\""
par RGG.node[16].port$o[3].channel typename "\"ned.IdealChannel\""
par RGG.node[34].port$o[1].channel typename "\"ned.IdealChannel\""
par RGG.node[16].port$o[4].channel typename "\"ned.IdealChannel\""
par RGG.node[58].port$o[4].channel typename "\"ned.IdealChannel\""
par RGG.node[16].port$o[5].channel typename "\"ned.IdealChannel\""
par RGG.node[95].port$o[0].channel typename "\"ned.IdealChannel\""
par RGG.node[16].port$o[6].channel typename "\"ned.IdealChannel\""
par RGG.node[98].port$o[4].channel typename "\"ned.IdealChannel\""
par RGG.node[17].port$o[0].channel typename "\"ned.IdealChannel\""
par RGG.node[20].port$o[1].channel typename "\"ned.IdealChannel\""
par RGG.node[17].port$o[1].channel typename "\"ned.IdealChannel\""
par RGG.node[32].port$o[0].channel typename "\"ned.IdealChannel\""
par RGG.node[17].port$o[2].channel typename "\"ned.IdealChannel\""
par RGG.node[34].port$o[2].channel typename "\"ned.IdealChannel\""
par RGG.node[17].port$o[3].channel typename "\"ned.IdealChannel\""
par RGG.node[35].port$o[0].channel typename "\"ned.IdealChannel\""
par RGG.node[17].port$o[4].channel typename "\"ned.IdealChannel\""
par RGG.node[39].port$o[2].channel typename "\"ned.IdealChannel\""
par RGG.node[17].port$o[5].channel typename "\"ned.IdealChannel\""
par RGG.node[54].port$o[0].channel typename "\"ned.IdealChannel\""
par RGG.node[17].port$o[6].channel typename "\"ned.IdealChannel\""
par RGG.node[55].port$o[0].channel typename "\"ned.IdealChannel\""
par RGG.node[17].port$o[7].channel typename "\"ned.IdealChannel\""
par RGG.node[75].port$o[0].channel typename "\"ned.IdealChannel\""
par RGG.node[17].port$o[8].channel typename "\"ned.IdealChannel\""
par RGG.node[76].port$o[0].channel typename "\"ned.IdealChannel\""
par RGG.node[17].port$o[9].channel typename "\"ned.IdealChannel\""
par RGG.node[80].port$o[0].channel typename "\"ned.IdealChannel\""
par RGG.node[17].port$o[10].channel typename "\"ned.IdealChannel\""
par RGG.node[91].port$o[0].channel typename "\"ned.IdealChannel\""
par RGG.node[17].port$o[11].channel typename "\"ned.IdealChannel\""
par RGG.node[93].port$o[0].channel typename "\"ned.IdealChannel\""
par RGG.node[17].port$o[12].channel typename "\"ned.IdealChannel\""
par RGG.node[95].port$o[1].channel typename "\"ned.IdealChannel\""
par RGG.node[18].port$o[3].channel typename "\"ned.IdealChannel\""
par RGG.node[22].port$o[5].channel typename "\"ned.IdealChannel\""
par RGG.node[18].port$o[4].channel typename "\"ned.IdealChannel\""
par RGG.node[24].port$o[5].channel typename "\"ned.IdealChannel\""
par RGG.node[18].port$o[5].channel typename "\"ned.IdealChannel\""
par RGG.node[42].port$o[1].channel typename "\"ned.IdealChannel\""
par RGG.node[18].port$o[6].channel typename "\"ned.IdealChannel\""
par RGG.node[48].port$o[4].channel typename "\"ned.IdealChannel\""
par RGG.node[18].port$o[7].channel typename "\"ned.IdealChannel\""
par RGG.node[51].port$o[1].channel typename "\"ned.IdealChannel\""
par RGG.node[18].port$o[8].channel typename "\"ned.IdealChannel\""
par RGG.node[66].port$o[0].channel typename "\"ned.IdealChannel\""
par RGG.node[18].port$o[9].channel typename "\"ned.IdealChannel\""
par RGG.node[73].port$o[1].channel typename "\"ned.IdealChannel\""
par RGG.node[18].port$o[10].channel typename "\"ned.IdealChannel\""
par RGG.node[83].port$o[3].channel typename "\"ned.IdealChannel\""
par RGG.node[18].port$o[11].channel typename "\"ned.IdealChannel\""
par RGG.node[87].port$o[1].channel typename "\"ned.IdealChannel\""
par RGG.node[18].port$o[12].channel typename "\"ned.IdealChannel\""
par RGG.node[89].port$o[5].channel typename "\"ned.IdealChannel\""
par RGG.node[18].port$o[13].channel typename "\"ned.IdealChannel\""
par RGG.node[92].port$o[5].channel typename "\"ned.IdealChannel\""
par RGG.node[19].port$o[0].channel typename "\"ned.IdealChannel\""
par RGG.node[20].port$o[2].channel typename "\"ned.IdealChannel\""
par RGG.node[19].port$o[1].channel typename "\"ned.IdealChannel\""
par RGG.node[37].port$o[0].channel typename "\"ned.IdealChannel\""
par RGG.node[19].port$o[2].channel typename "\"ned.IdealChannel\""
par RGG.node[43].port$o[0].channel typename "\"ned.IdealChannel\""
par RGG.node[19].port$o[3].channel typename "\"ned.IdealChannel\""
par RGG.node[55].port$o[1].channel typename "\"ned.IdealChannel\""
par RGG.node[19].port$o[4].channel typename "\"ned.IdealChannel\""
par RGG.node[59].port$o[1].channel typename "\"ned.IdealChannel\""
par RGG.node[19].port$o[5].channel typename "\"ned.IdealChannel\""
par RGG.node[62].port$o[2].channel typename "\"ned.IdealChannel\""
par RGG.node[19].port$o[6].channel typename "\"ned.IdealChannel\""
par RGG.node[64].port$o[1].channel typename "\"ned.IdealChannel\""
par RGG.node[19].port$o[7].channel typename "\"ned.IdealChannel\""
par RGG.node[67].port$o[4].channel typename "\"ned.IdealChannel\""
par RGG.node[19].port$o[8].channel typename "\"ned.IdealChannel\""
par RGG.node[96].port$o[1].channel typename "\"ned.IdealChannel\""
par RGG.node[19].port$o[9].channel typename "\"ned.IdealChannel\""
par RGG.node[99].port$o[2].channel typename "\"ned.IdealChannel\""
par RGG.node[20].port$o[3].channel typename "\"ned.IdealChannel\""
par RGG.node[31].port$o[3].channel typename "\"ned.IdealChannel\""
par RGG.node[20].port$o[4].channel typename "\"ned.IdealChannel\""
par RGG.node[34].port$o[3].channel typename "\"ned.IdealChannel\""
par RGG.node[20].port$o[5].channel typename "\"ned.IdealChannel\""
par RGG.node[37].port$o[1].channel typename "\"ned.IdealChannel\""
par RGG.node[20].port$o[6].channel typename "\"ned.IdealChannel\""
par RGG.node[39].port$o[3].channel typename "\"ned.IdealChannel\""
par RGG.node[20].port$o[7].channel typename "\"ned.IdealChannel\""
par RGG.node[43].port$o[1].channel typename "\"ned.IdealChannel\""
par RGG.node[20].port$o[8].channel typename "\"ned.IdealChannel\""
par RGG.node[54].port$o[1].channel typename "\"ned.IdealChannel\""
par RGG.node[20].port$o[9].channel typename "\"ned.IdealChannel\""
par RGG.node[55].port$o[2].channel typename "\"ned.IdealChannel\""
par RGG.node[20].port$o[10].channel typename "\"ned.IdealChannel\""
par RGG.node[59].port$o[2].channel typename "\"ned.IdealChannel\""
par RGG.node[20].port$o[11].channel typename "\"ned.IdealChannel\""
par RGG.node[76].port$o[1].channel typename "\"ned.IdealChannel\""
par RGG.node[20].port$o[12].channel typename "\"ned.IdealChannel\""
par RGG.node[93].port$o[1].channel typename "\"ned.IdealChannel\""
par RGG.node[20].port$o[13].channel typename "\"ned.IdealChannel\""
par RGG.node[96].port$o[2].channel typename "\"ned.IdealChannel\""
par RGG.node[21].port$o[3].channel typename "\"ned.IdealChannel\""
par RGG.node[22].port$o[6].channel typename "\"ned.IdealChannel\""
par RGG.node[21].port$o[4].channel typename "\"ned.IdealChannel\""
par RGG.node[25].port$o[4].channel typename "\"ned.IdealChannel\""
par RGG.node[21].port$o[5].channel typename "\"ned.IdealChannel\""
par RGG.node[31].port$o[4].channel typename "\"ned.IdealChannel\""
par RGG.node[21].port$o[6].channel typename "\"ned.IdealChannel\""
par RGG.node[33].port$o[5].channel typename "\"ned.IdealChannel\""
par RGG.node[21].port$o[7].channel typename "\"ned.IdealChannel\""
par RGG.node[39].port$o[4].channel typename "\"ned.IdealChannel\""
par RGG.node[21].port$o[8].channel typename "\"ned.IdealChannel\""
par RGG.node[41].port$o[3].channel typename "\"ned.IdealChannel\""
par RGG.node[21].port$o[9].channel typename "\"ned.IdealChannel\""
par RGG.node[47].port$o[4].channel typename "\"ned.IdealChannel\""
par RGG.node[21].port$o[10].channel typename "\"ned.IdealChannel\""
par RGG.node[58].port$o[5].channel typename "\"ned.IdealChannel\""
par RGG.node[21].port$o[11].channel typename "\"ned.IdealChannel\""
par RGG.node[62].port$o[3].channel typename "\"ned.IdealChannel\""
par RGG.node[21].port$o[12].channel typename "\"ned.IdealChannel\""
par RGG.node[63].port$o[2].channel typename "\"ned.IdealChannel\""
par RGG.node[21].port$o[13].channel typename "\"ned.IdealChannel\""
par RGG.node[82].port$o[3].channel typename "\"ned.IdealChannel\""
par RGG.node[21].port$o[14].channel typename "\"ned.IdealChannel\""
par RGG.node[97].port$o[5].channel typename "\"ned.IdealChannel\""
par RGG.node[21].port$o[15].channel typename "\"ned.IdealChannel\""
par RGG.node[98].port$o[5].channel typename "\"ned.IdealChannel\""
par RGG.node[22].port$o[7].channel typename "\"ned.IdealChannel\""
par RGG.node[24].port$o[6].channel typename "\"ned.IdealChannel\""
par RGG.node[22].port$o[8].channel typename "\"ned.IdealChannel\""
par RGG.node[25].port$o[5].channel typename "\"ned.IdealChannel\""
par RGG.node[22].port$o[9].channel typename "\"ned.IdealChannel\""
par RGG.node[29].port$o[5].channel typename "\"ned.IdealChannel\""
par RGG.node[22].port$o[10].channel typename "\"ned.IdealChannel\""
par RGG.node[33].port$o[6].channel typename "\"ned.IdealChannel\""
par RGG.node[22].port$o[11].channel typename "\"ned.IdealChannel\""
par RGG.node[41].port$o[4].channel typename "\"ned.IdealChannel\""
par RGG.node[22].port$o[12].channel typename "\"ned.IdealChannel\""
par RGG.node[45].port$o[5].channel typename "\"ned.IdealChannel\""
par RGG.node[22].port$o[13].channel typename "\"ned.IdealChannel\""
par RGG.node[47].port$o[5].channel typename "\"ned.IdealChannel\""
par RGG.node[22].port$o[14].channel typename "\"ned.IdealChannel\""
par RGG.node[48].port$o[5].channel typename "\"ned.IdealChannel\""
par RGG.node[22].port$o[15].channel typename "\"ned.IdealChannel\""
par RGG.node[82].port$o[4].channel typename "\"ned.IdealChannel\""
par RGG.node[22].port$o[16].channel typename "\"ned.IdealChannel\""
par RGG.node[83].port$o[4].channel typename "\"ned.IdealChannel\""
par RGG.node[22].port$o[17].channel typename "\"ned.IdealChannel\""
par RGG.node[89].port$o[6].channel typename "\"ned.IdealChannel\""
par RGG.node[22].port$o[18].channel typename "\"ned.IdealChannel\""
par RGG.node[92].port$o[6].channel typename "\"ned.IdealChannel\""
par RGG.node[22].port$o[19].channel typename "\"ned.IdealChannel\""
par RGG.node[97].port$o[6].channel typename "\"ned.IdealChannel\""
par RGG.node[22].port$o[20].channel typename "\"ned.IdealChannel\""
par RGG.node[98].port$o[6].channel typename "\"ned.IdealChannel\""
par RGG.node[23].port$o[3].channel typename "\"ned.IdealChannel\""
par RGG.node[27].port$o[5].channel typename "\"ned.IdealChannel\""
par RGG.node[23].port$o[4].channel typename "\"ned.IdealChannel\""
par RGG.node[49].port$o[4].channel typename "\"ned.IdealChannel\""
par RGG.node[23].port$o[5].channel typename "\"ned.IdealChannel\""
par RGG.node[50].port$o[3].channel typename "\"ned.IdealChannel\""
par RGG.node[23].port$o[6].channel typename "\"ned.IdealChannel\""
par RGG.node[52].port$o[4].channel typename "\"ned.IdealChannel\""
par RGG.node[23].port$o[7].channel typename "\"ned.IdealChannel\""
par RGG.node[69].port$o[5].channel typename "\"ned.IdealChannel\""
par RGG.node[23].port$o[8].channel typename "\"ned.IdealChannel\""
par RGG.node[74].port$o[4].channel typename "\"ned.IdealChannel\""
par RGG.node[23].port$o[9].channel typename "\"ned.IdealChannel\""
par RGG.node[77].port$o[4].channel typename "\"ned.IdealChannel\""
par RGG.node[24].port$o[7].channel typename "\"ned.IdealChannel\""
par RGG.node[27].port$o[6].channel typename "\"ned.IdealChannel\""
par RGG.node[24].port$o[8].channel typename "\"ned.IdealChannel\""
par RGG.node[29].port$o[6].channel typename "\"ned.IdealChannel\""
par RGG.node[24].port$o[9].channel typename "\"ned.IdealChannel\""
par RGG.node[42].port$o[2].channel typename "\"ned.IdealChannel\""
par RGG.node[24].port$o[10].channel typename "\"ned.IdealChannel\""
par RGG.node[45].port$o[6].channel typename "\"ned.IdealChannel\""
par RGG.node[24].port$o[11].channel typename "\"ned.IdealChannel\""
par RGG.node[48].port$o[6].channel typename "\"ned.IdealChannel\""
par RGG.node[24].port$o[12].channel typename "\"ned.IdealChannel\""
par RGG.node[56].port$o[4].channel typename "\"ned.IdealChannel\""
par RGG.node[24].port$o[13].channel typename "\"ned.IdealChannel\""
par RGG.node[89].port$o[7].channel typename "\"ned.IdealChannel\""
par RGG.node[24].port$o[14].channel typename "\"ned.IdealChannel\""
par RGG.node[92].port$o[7].channel typename "\"ned.IdealChannel\""
par RGG.node[24].port$o[15].channel typename "\"ned.IdealChannel\""
par RGG.node[97].port$o[7].channel typename "\"ned.IdealChannel\""
par RGG.node[25].port$o[6].channel typename "\"ned.IdealChannel\""
par RGG.node[31].port$o[5].channel typename "\"ned.IdealChannel\""
par RGG.node[25].port$o[7].channel typename "\"ned.IdealChannel\""
par RGG.node[33].port$o[7].channel typename "\"ned.IdealChannel\""
par RGG.node[25].port$o[8].channel typename "\"ned.IdealChannel\""
par RGG.node[41].port$o[5].channel typename "\"ned.IdealChannel\""
par RGG.node[25].port$o[9].channel typename "\"ned.IdealChannel\""
par RGG.node[45].port$o[7].channel typename "\"ned.IdealChannel\""
par RGG.node[25].port$o[10].channel typename "\"ned.IdealChannel\""
par RGG.node[47].port$o[6].channel typename "\"ned.IdealChannel\""
par RGG.node[25].port$o[11].channel typename "\"ned.IdealChannel\""
par RGG.node[48].port$o[7].channel typename "\"ned.IdealChannel\""
par RGG.node[25].port$o[12].channel typename "\"ned.IdealChannel\""
par RGG.node[58].port$o[6].channel typename "\"ned.IdealChannel\""
par RGG.node[25].port$o[13].channel typename "\"ned.IdealChannel\""
par RGG.node[62].port$o[4].channel typename "\"ned.IdealChannel\""
par RGG.node[25].port$o[14].channel typename "\"ned.IdealChannel\""
par RGG.node[82].port$o[5].channel typename "\"ned.IdealChannel\""
par RGG.node[25].port$o[15].channel typename "\"ned.IdealChannel\""
par RGG.node[97].port$o[8].channel typename "\"ned.IdealChannel\""
par RGG.node[25].port$o[16].channel typename "\"ned.IdealChannel\""
par RGG.node[98].port$o[7].channel typename "\"ned.IdealChannel\""
par RGG.node[26].port$o[3].channel typename "\"ned.IdealChannel\""
par RGG.node[28].port$o[3].channel typename "\"ned.IdealChannel\""
par RGG.node[26].port$o[4].channel typename "\"ned.IdealChannel\""
par RGG.node[30].port$o[5].channel typename "\"ned.IdealChannel\""
par RGG.node[26].port$o[5].channel typename "\"ned.IdealChannel\""
par RGG.node[36].port$o[2].channel typename "\"ned.IdealChannel\""
par RGG.node[26].port$o[6].channel typename "\"ned.IdealChannel\""
par RGG.node[38].port$o[3].channel typename "\"ned.IdealChannel\""
par RGG.node[26].port$o[7].channel typename "\"ned.IdealChannel\""
par RGG.node[44].port$o[4].channel typename "\"ned.IdealChannel\""
par RGG.node[26].port$o[8].channel typename "\"ned.IdealChannel\""
par RGG.node[53].port$o[4].channel typename "\"ned.IdealChannel\""
par RGG.node[26].port$o[9].channel typename "\"ned.IdealChannel\""
par RGG.node[57].port$o[3].channel typename "\"ned.IdealChannel\""
par RGG.node[26].port$o[10].channel typename "\"ned.IdealChannel\""
par RGG.node[61].port$o[3].channel typename "\"ned.IdealChannel\""
par RGG.node[26].port$o[11].channel typename "\"ned.IdealChannel\""
par RGG.node[63].port$o[3].channel typename "\"ned.IdealChannel\""
par RGG.node[26].port$o[12].channel typename "\"ned.IdealChannel\""
par RGG.node[68].port$o[3].channel typename "\"ned.IdealChannel\""
par RGG.node[26].port$o[13].channel typename "\"ned.IdealChannel\""
par RGG.node[69].port$o[6].channel typename "\"ned.IdealChannel\""
par RGG.node[26].port$o[14].channel typename "\"ned.IdealChannel\""
par RGG.node[70].port$o[3].channel typename "\"ned.IdealChannel\""
par RGG.node[26].port$o[15].channel typename "\"ned.IdealChannel\""
par RGG.node[71].port$o[4].channel typename "\"ned.IdealChannel\""
par RGG.node[26].port$o[16].channel typename "\"ned.IdealChannel\""
par RGG.node[79].port$o[3].channel typename "\"ned.IdealChannel\""
par RGG.node[26].port$o[17].channel typename "\"ned.IdealChannel\""
par RGG.node[84].port$o[3].channel typename "\"ned.IdealChannel\""
par RGG.node[26].port$o[18].channel typename "\"ned.IdealChannel\""
par RGG.node[85].port$o[3].channel typename "\"ned.IdealChannel\""
par RGG.node[26].port$o[19].channel typename "\"ned.IdealChannel\""
par RGG.node[90].port$o[4].channel typename "\"ned.IdealChannel\""
par RGG.node[26].port$o[20].channel typename "\"ned.IdealChannel\""
par RGG.node[94].port$o[2].channel typename "\"ned.IdealChannel\""
par RGG.node[27].port$o[7].channel typename "\"ned.IdealChannel\""
par RGG.node[29].port$o[7].channel typename "\"ned.IdealChannel\""
par RGG.node[27].port$o[8].channel typename "\"ned.IdealChannel\""
par RGG.node[30].port$o[6].channel typename "\"ned.IdealChannel\""
par RGG.node[27].port$o[9].channel typename "\"ned.IdealChannel\""
par RGG.node[44].port$o[5].channel typename "\"ned.IdealChannel\""
par RGG.node[27].port$o[10].channel typename "\"ned.IdealChannel\""
par RGG.node[45].port$o[8].channel typename "\"ned.IdealChannel\""
par RGG.node[27].port$o[11].channel typename "\"ned.IdealChannel\""
par RGG.node[49].port$o[5].channel typename "\"ned.IdealChannel\""
par RGG.node[27].port$o[12].channel typename "\"ned.IdealChannel\""
par RGG.node[50].port$o[4].channel typename "\"ned.IdealChannel\""
par RGG.node[27].port$o[13].channel typename "\"ned.IdealChannel\""
par RGG.node[52].port$o[5].channel typename "\"ned.IdealChannel\""
par RGG.node[27].port$o[14].channel typename "\"ned.IdealChannel\""
par RGG.node[56].port$o[5].channel typename "\"ned.IdealChannel\""
par RGG.node[27].port$o[15].channel typename "\"ned.IdealChannel\""
par RGG.node[69].port$o[7].channel typename "\"ned.IdealChannel\""
par RGG.node[27].port$o[16].channel typename "\"ned.IdealChannel\""
par RGG.node[71].port$o[5].channel typename "\"ned.IdealChannel\""
par RGG.node[27].port$o[17].channel typename "\"ned.IdealChannel\""
par RGG.node[74].port$o[5].channel typename "\"ned.IdealChannel\""
par RGG.node[27].port$o[18].channel typename "\"ned.IdealChannel\""
par RGG.node[77].port$o[5].channel typename "\"ned.IdealChannel\""
par RGG.node[27].port$o[19].channel typename "\"ned.IdealChannel\""
par RGG.node[89].port$o[8].channel typename "\"ned.IdealChannel\""
par RGG.node[27].port$o[20].channel typename "\"ned.IdealChannel\""
par RGG.node[97].port$o[9].channel typename "\"ned.IdealChannel\""
par RGG.node[28].port$o[4].channel typename "\"ned.IdealChannel\""
par RGG.node[36].port$o[3].channel typename "\"ned.IdealChannel\""
par RGG.node[28].port$o[5].channel typename "\"ned.IdealChannel\""
par RGG.node[38].port$o[4].channel typename "\"ned.IdealChannel\""
par RGG.node[28].port$o[6].channel typename "\"ned.IdealChannel\""
par RGG.node[53].port$o[5].channel typename "\"ned.IdealChannel\""
par RGG.node[28].port$o[7].channel typename "\"ned.IdealChannel\""
par RGG.node[57].port$o[4].channel typename "\"ned.IdealChannel\""
par RGG.node[28].port$o[8].channel typename "\"ned.IdealChannel\""
par RGG.node[61].port$o[4].channel typename "\"ned.IdealChannel\""
par RGG.node[28].port$o[9].channel typename "\"ned.IdealChannel\""
par RGG.node[63].port$o[4].channel typename "\"ned.IdealChannel\""
par RGG.node[28].port$o[10].channel typename "\"ned.IdealChannel\""
par RGG.node[65].port$o[3].channel typename "\"ned.IdealChannel\""
par RGG.node[28].port$o[11].channel typename "\"ned.IdealChannel\""
par RGG.node[68].port$o[4].channel typename "\"ned.IdealChannel\""
par RGG.node[28].port$o[12].channel typename "\"ned.IdealChannel\""
par RGG.node[70].port$o[4].channel typename "\"ned.IdealChannel\""
par RGG.node[28].port$o[13].channel typename "\"ned.IdealChannel\""
par RGG.node[72].port$o[3].channel typename "\"ned.IdealChannel\""
par RGG.node[28].port$o[14].channel typename "\"ned.IdealChannel\""
par RGG.node[84].port$o[4].channel typename "\"ned.IdealChannel\""
par RGG.node[28].port$o[15].channel typename "\"ned.IdealChannel\""
par RGG.node[85].port$o[4].channel typename "\"ned.IdealChannel\""
par RGG.node[28].port$o[16].channel typename "\"ned.IdealChannel\""
par RGG.node[86].port$o[3].channel typename "\"ned.IdealChannel\""
par RGG.node[28].port$o[17].channel typename "\"ned.IdealChannel\""
par RGG.node[90].port$o[5].channel typename "\"ned.IdealChannel\""
par RGG.node[28].port$o[18].channel typename "\"ned.IdealChannel\""
par RGG.node[94].port$o[3].channel typename "\"ned.IdealChannel\""
par RGG.node[29].port$o[8].channel typename "\"ned.IdealChannel\""
par RGG.node[41].port$o[6].channel typename "\"ned.IdealChannel\""
par RGG.node[29].port$o[9].channel typename "\"ned.IdealChannel\""
par RGG.node[45].port$o[9].channel typename "\"ned.IdealChannel\""
par RGG.node[29].port$o[10].channel typename "\"ned.IdealChannel\""
par RGG.node[47].port$o[7].channel typename "\"ned.IdealChannel\""
par RGG.node[29].port$o[11].channel typename "\"ned.IdealChannel\""
par RGG.node[48].port$o[8].channel typename "\"ned.IdealChannel\""
par RGG.node[29].port$o[12].channel typename "\"ned.IdealChannel\""
par RGG.node[56].port$o[6].channel typename "\"ned.IdealChannel\""
par RGG.node[29].port$o[13].channel typename "\"ned.IdealChannel\""
par RGG.node[69].port$o[8].channel typename "\"ned.IdealChannel\""
par RGG.node[29].port$o[14].channel typename "\"ned.IdealChannel\""
par RGG.node[71].port$o[6].channel typename "\"ned.IdealChannel\""
par RGG.node[29].port$o[15].channel typename "\"ned.IdealChannel\""
par RGG.node[89].port$o[9].channel typename "\"ned.IdealChannel\""
par RGG.node[29].port$o[16].channel typename "\"ned.IdealChannel\""
par RGG.node[92].port$o[8].channel typename "\"ned.IdealChannel\""
par RGG.node[29].port$o[17].channel typename "\"ned.IdealChannel\""
par RGG.node[97].port$o[10].channel typename "\"ned.IdealChannel\""
par RGG.node[30].port$o[7].channel typename "\"ned.IdealChannel\""
par RGG.node[36].port$o[4].channel typename "\"ned.IdealChannel\""
par RGG.node[30].port$o[8].channel typename "\"ned.IdealChannel\""
par RGG.node[38].port$o[5].channel typename "\"ned.IdealChannel\""
par RGG.node[30].port$o[9].channel typename "\"ned.IdealChannel\""
par RGG.node[44].port$o[6].channel typename "\"ned.IdealChannel\""
par RGG.node[30].port$o[10].channel typename "\"ned.IdealChannel\""
par RGG.node[45].port$o[10].channel typename "\"ned.IdealChannel\""
par RGG.node[30].port$o[11].channel typename "\"ned.IdealChannel\""
par RGG.node[47].port$o[8].channel typename "\"ned.IdealChannel\""
par RGG.node[30].port$o[12].channel typename "\"ned.IdealChannel\""
par RGG.node[53].port$o[6].channel typename "\"ned.IdealChannel\""
par RGG.node[30].port$o[13].channel typename "\"ned.IdealChannel\""
par RGG.node[63].port$o[5].channel typename "\"ned.IdealChannel\""
par RGG.node[30].port$o[14].channel typename "\"ned.IdealChannel\""
par RGG.node[68].port$o[5].channel typename "\"ned.IdealChannel\""
par RGG.node[30].port$o[15].channel typename "\"ned.IdealChannel\""
par RGG.node[69].port$o[9].channel typename "\"ned.IdealChannel\""
par RGG.node[30].port$o[16].channel typename "\"ned.IdealChannel\""
par RGG.node[71].port$o[7].channel typename "\"ned.IdealChannel\""
par RGG.node[30].port$o[17].channel typename "\"ned.IdealChannel\""
par RGG.node[74].port$o[6].channel typename "\"ned.IdealChannel\""
par RGG.node[30].port$o[18].channel typename "\"ned.IdealChannel\""
par RGG.node[79].port$o[4].channel typename "\"ned.IdealChannel\""
par RGG.node[30].port$o[19].channel typename "\"ned.IdealChannel\""
par RGG.node[85].port$o[5].channel typename "\"ned.IdealChannel\""
par RGG.node[30].port$o[20].channel typename "\"ned.IdealChannel\""
par RGG.node[90].port$o[6].channel typename "\"ned.IdealChannel\""
par RGG.node[30].port$o[21].channel typename "\"ned.IdealChannel\""
par RGG.node[97].port$o[11].channel typename "\"ned.IdealChannel\""
par RGG.node[31].port$o[6].channel typename "\"ned.IdealChannel\""
par RGG.node[33].port$o[8].channel typename "\"ned.IdealChannel\""
par RGG.node[31].port$o[7].channel typename "\"ned.IdealChannel\""
par RGG.node[34].port$o[4].channel typename "\"ned.IdealChannel\""
par RGG.node[31].port$o[8].channel typename "\"ned.IdealChannel\""
par RGG.node[39].port$o[5].channel typename "\"ned.IdealChannel\""
par RGG.node[31].port$o[9].channel typename "\"ned.IdealChannel\""
par RGG.node[54].port$o[2].channel typename "\"ned.IdealChannel\""
par RGG.node[31].port$o[10].channel typename "\"ned.IdealChannel\""
par RGG.node[58].port$o[7].channel typename "\"ned.IdealChannel\""
par RGG.node[31].port$o[11].channel typename "\"ned.IdealChannel\""
par RGG.node[59].port$o[3].channel typename "\"ned.IdealChannel\""
par RGG.node[31].port$o[12].channel typename "\"ned.IdealChannel\""
par RGG.node[82].port$o[6].channel typename "\"ned.IdealChannel\""
par RGG.node[31].port$o[13].channel typename "\"ned.IdealChannel\""
par RGG.node[95].port$o[2].channel typename "\"ned.IdealChannel\""
par RGG.node[31].port$o[14].channel typename "\"ned.IdealChannel\""
par RGG.node[98].port$o[8].channel typename "\"ned.IdealChannel\""
par RGG.node[32].port$o[1].channel typename "\"ned.IdealChannel\""
par RGG.node[35].port$o[1].channel typename "\"ned.IdealChannel\""
par RGG.node[32].port$o[2].channel typename "\"ned.IdealChannel\""
par RGG.node[54].port$o[3].channel typename "\"ned.IdealChannel\""
par RGG.node[32].port$o[3].channel typename "\"ned.IdealChannel\""
par RGG.node[75].port$o[1].channel typename "\"ned.IdealChannel\""
par RGG.node[32].port$o[4].channel typename "\"ned.IdealChannel\""
par RGG.node[80].port$o[1].channel typename "\"ned.IdealChannel\""
par RGG.node[32].port$o[5].channel typename "\"ned.IdealChannel\""
par RGG.node[91].port$o[1].channel typename "\"ned.IdealChannel\""
par RGG.node[32].port$o[6].channel typename "\"ned.IdealChannel\""
par RGG.node[93].port$o[2].channel typename "\"ned.IdealChannel\""
par RGG.node[33].port$o[9].channel typename "\"ned.IdealChannel\""
par RGG.node[41].port$o[7].channel typename "\"ned.IdealChannel\""
par RGG.node[33].port$o[10].channel typename "\"ned.IdealChannel\""
par RGG.node[47].port$o[9].channel typename "\"ned.IdealChannel\""
par RGG.node[33].port$o[11].channel typename "\"ned.IdealChannel\""
par RGG.node[48].port$o[9].channel typename "\"ned.IdealChannel\""
par RGG.node[33].port$o[12].channel typename "\"ned.IdealChannel\""
par RGG.node[58].port$o[8].channel typename "\"ned.IdealChannel\""
par RGG.node[33].port$o[13].channel typename "\"ned.IdealChannel\""
par RGG.node[82].port$o[7].channel typename "\"ned.IdealChannel\""
par RGG.node[33].port$o[14].channel typename "\"ned.IdealChannel\""
par RGG.node[97].port$o[12].channel typename "\"ned.IdealChannel\""
par RGG.node[33].port$o[15].channel typename "\"ned.IdealChannel\""
par RGG.node[98].port$o[9].channel typename "\"ned.IdealChannel\""
par RGG.node[34].port$o[5].channel typename "\"ned.IdealChannel\""
par RGG.node[35].port$o[2].channel typename "\"ned.IdealChannel\""
par RGG.node[34].port$o[6].channel typename "\"ned.IdealChannel\""
par RGG.node[39].port$o[6].channel typename "\"ned.IdealChannel\""
par RGG.node[34].port$o[7].channel typename "\"ned.IdealChannel\""
par RGG.node[54].port$o[4].channel typename "\"ned.IdealChannel\""
par RGG.node[34].port$o[8].channel typename "\"ned.IdealChannel\""
par RGG.node[58].port$o[9].channel typename "\"ned.IdealChannel\""
par RGG.node[34].port$o[9].channel typename "\"ned.IdealChannel\""
par RGG.node[75].port$o[2].channel typename "\"ned.IdealChannel\""
par RGG.node[34].port$o[10].channel typename "\"ned.IdealChannel\""
par RGG.node[91].port$o[2].channel typename "\"ned.IdealChannel\""
par RGG.node[34].port$o[11].channel typename "\"ned.IdealChannel\""
par RGG.node[93].port$o[3].channel typename "\"ned.IdealChannel\""
par RGG.node[34].port$o[12].channel typename "\"ned.IdealChannel\""
par RGG.node[95].port$o[3].channel typename "\"ned.IdealChannel\""
par RGG.node[34].port$o[13].channel typename "\"ned.IdealChannel\""
par RGG.node[98].port$o[10].channel typename "\"ned.IdealChannel\""
par RGG.node[35].port$o[3].channel typename "\"ned.IdealChannel\""
par RGG.node[54].port$o[5].channel typename "\"ned.IdealChannel\""
par RGG.node[35].port$o[4].channel typename "\"ned.IdealChannel\""
par RGG.node[75].port$o[3].channel typename "\"ned.IdealChannel\""
par RGG.node[35].port$o[5].channel typename "\"ned.IdealChannel\""
par RGG.node[80].port$o[2].channel typename "\"ned.IdealChannel\""
par RGG.node[35].port$o[6].channel typename "\"ned.IdealChannel\""
par RGG.node[91].port$o[3].channel typename "\"ned.IdealChannel\""
par RGG.node[35].port$o[7].channel typename "\"ned.IdealChannel\""
par RGG.node[95].port$o[4].channel typename "\"ned.IdealChannel\""
par RGG.node[36].port$o[5].channel typename "\"ned.IdealChannel\""
par RGG.node[38].port$o[6].channel typename "\"ned.IdealChannel\""
par RGG.node[36].port$o[6].channel typename "\"ned.IdealChannel\""
par RGG.node[44].port$o[7].channel typename "\"ned.IdealChannel\""
par RGG.node[36].port$o[7].channel typename "\"ned.IdealChannel\""
par RGG.node[53].port$o[7].channel typename "\"ned.IdealChannel\""
par RGG.node[36].port$o[8].channel typename "\"ned.IdealChannel\""
par RGG.node[57].port$o[5].channel typename "\"ned.IdealChannel\""
par RGG.node[36].port$o[9].channel typename "\"ned.IdealChannel\""
par RGG.node[61].port$o[5].channel typename "\"ned.IdealChannel\""
par RGG.node[36].port$o[10].channel typename "\"ned.IdealChannel\""
par RGG.node[68].port$o[6].channel typename "\"ned.IdealChannel\""
par RGG.node[36].port$o[11].channel typename "\"ned.IdealChannel\""
par RGG.node[70].port$o[5].channel typename "\"ned.IdealChannel\""
par RGG.node[36].port$o[12].channel typename "\"ned.IdealChannel\""
par RGG.node[72].port$o[4].channel typename "\"ned.IdealChannel\""
par RGG.node[36].port$o[13].channel typename "\"ned.IdealChannel\""
par RGG.node[79].port$o[5].channel typename "\"ned.IdealChannel\""
par RGG.node[36].port$o[14].channel typename "\"ned.IdealChannel\""
par RGG.node[84].port$o[5].channel typename "\"ned.IdealChannel\""
par RGG.node[36].port$o[15].channel typename "\"ned.IdealChannel\""
par RGG.node[85].port$o[6].channel typename "\"ned.IdealChannel\""
par RGG.node[36].port$o[16].channel typename "\"ned.IdealChannel\""
par RGG.node[86].port$o[4].channel typename "\"ned.IdealChannel\""
par RGG.node[36].port$o[17].channel typename "\"ned.IdealChannel\""
par RGG.node[90].port$o[7].channel typename "\"ned.IdealChannel\""
par RGG.node[36].port$o[18].channel typename "\"ned.IdealChannel\""
par RGG.node[94].port$o[4].channel typename "\"ned.IdealChannel\""
par RGG.node[37].port$o[2].channel typename "\"ned.IdealChannel\""
par RGG.node[39].port$o[7].channel typename "\"ned.IdealChannel\""
par RGG.node[37].port$o[3].channel typename "\"ned.IdealChannel\""
par RGG.node[43].port$o[2].channel typename "\"ned.IdealChannel\""
par RGG.node[37].port$o[4].channel typename "\"ned.IdealChannel\""
par RGG.node[55].port$o[3].channel typename "\"ned.IdealChannel\""
par RGG.node[37].port$o[5].channel typename "\"ned.IdealChannel\""
par RGG.node[59].port$o[4].channel typename "\"ned.IdealChannel\""
par RGG.node[37].port$o[6].channel typename "\"ned.IdealChannel\""
par RGG.node[62].port$o[5].channel typename "\"ned.IdealChannel\""
par RGG.node[37].port$o[7].channel typename "\"ned.IdealChannel\""
par RGG.node[64].port$o[2].channel typename "\"ned.IdealChannel\""
par RGG.node[37].port$o[8].channel typename "\"ned.IdealChannel\""
par RGG.node[76].port$o[2].channel typename "\"ned.IdealChannel\""
par RGG.node[37].port$o[9].channel typename "\"ned.IdealChannel\""
par RGG.node[93].port$o[4].channel typename "\"ned.IdealChannel\""
par RGG.node[37].port$o[10].channel typename "\"ned.IdealChannel\""
par RGG.node[96].port$o[3].channel typename "\"ned.IdealChannel\""
par RGG.node[37].port$o[11].channel typename "\"ned.IdealChannel\""
par RGG.node[99].port$o[3].channel typename "\"ned.IdealChannel\""
par RGG.node[38].port$o[7].channel typename "\"ned.IdealChannel\""
par RGG.node[53].port$o[8].channel typename "\"ned.IdealChannel\""
par RGG.node[38].port$o[8].channel typename "\"ned.IdealChannel\""
par RGG.node[57].port$o[6].channel typename "\"ned.IdealChannel\""
par RGG.node[38].port$o[9].channel typename "\"ned.IdealChannel\""
par RGG.node[61].port$o[6].channel typename "\"ned.IdealChannel\""
par RGG.node[38].port$o[10].channel typename "\"ned.IdealChannel\""
par RGG.node[62].port$o[6].channel typename "\"ned.IdealChannel\""
par RGG.node[38].port$o[11].channel typename "\"ned.IdealChannel\""
par RGG.node[63].port$o[6].channel typename "\"ned.IdealChannel\""
par RGG.node[38].port$o[12].channel typename "\"ned.IdealChannel\""
par RGG.node[68].port$o[7].channel typename "\"ned.IdealChannel\""
par RGG.node[38].port$o[13].channel typename "\"ned.IdealChannel\""
par RGG.node[70].port$o[6].channel typename "\"ned.IdealChannel\""
par RGG.node[38].port$o[14].channel typename "\"ned.IdealChannel\""
par RGG.node[72].port$o[5].channel typename "\"ned.IdealChannel\""
par RGG.node[38].port$o[15].channel typename "\"ned.IdealChannel\""
par RGG.node[84].port$o[6].channel typename "\"ned.IdealChannel\""
par RGG.node[38].port$o[16].channel typename "\"ned.IdealChannel\""
par RGG.node[86].port$o[5].channel typename "\"ned.IdealChannel\""
par RGG.node[38].port$o[17].channel typename "\"ned.IdealChannel\""
par RGG.node[90].port$o[8].channel typename "\"ned.IdealChannel\""
par RGG.node[38].port$o[18].channel typename "\"ned.IdealChannel\""
par RGG.node[99].port$o[4].channel typename "\"ned.IdealChannel\""
par RGG.node[39].port$o[8].channel typename "\"ned.IdealChannel\""
par RGG.node[43].port$o[3].channel typename "\"ned.IdealChannel\""
par RGG.node[39].port$o[9].channel typename "\"ned.IdealChannel\""
par RGG.node[54].port$o[6].channel typename "\"ned.IdealChannel\""
par RGG.node[39].port$o[10].channel typename "\"ned.IdealChannel\""
par RGG.node[55].port$o[4].channel typename "\"ned.IdealChannel\""
par RGG.node[39].port$o[11].channel typename "\"ned.IdealChannel\""
par RGG.node[58].port$o[10].channel typename "\"ned.IdealChannel\""
par RGG.node[39].port$o[12].channel typename "\"ned.IdealChannel\""
par RGG.node[59].port$o[5].channel typename "\"ned.IdealChannel\""
par RGG.node[39].port$o[13].channel typename "\"ned.IdealChannel\""
par RGG.node[75].port$o[4].channel typename "\"ned.IdealChannel\""
par RGG.node[39].port$o[14].channel typename "\"ned.IdealChannel\""
par RGG.node[76].port$o[3].channel typename "\"ned.IdealChannel\""
par RGG.node[39].port$o[15].channel typename "\"ned.IdealChannel\""
par RGG.node[93].port$o[5].channel typename "\"ned.IdealChannel\""
par RGG.node[39].port$o[16].channel typename "\"ned.IdealChannel\""
par RGG.node[95].port$o[5].channel typename "\"ned.IdealChannel\""
par RGG.node[39].port$o[17].channel typename "\"ned.IdealChannel\""
par RGG.node[96].port$o[4].channel typename "\"ned.IdealChannel\""
par RGG.node[40].port$o[2].channel typename "\"ned.IdealChannel\""
par RGG.node[46].port$o[2].channel typename "\"ned.IdealChannel\""
par RGG.node[40].port$o[3].channel typename "\"ned.IdealChannel\""
par RGG.node[60].port$o[4].channel typename "\"ned.IdealChannel\""
par RGG.node[40].port$o[4].channel typename "\"ned.IdealChannel\""
par RGG.node[65].port$o[4].channel typename "\"ned.IdealChannel\""
par RGG.node[40].port$o[5].channel typename "\"ned.IdealChannel\""
par RGG.node[67].port$o[5].channel typename "\"ned.IdealChannel\""
par RGG.node[40].port$o[6].channel typename "\"ned.IdealChannel\""
par RGG.node[78].port$o[2].channel typename "\"ned.IdealChannel\""
par RGG.node[40].port$o[7].channel typename "\"ned.IdealChannel\""
par RGG.node[81].port$o[4].channel typename "\"ned.IdealChannel\""
par RGG.node[40].port$o[8].channel typename "\"ned.IdealChannel\""
par RGG.node[88].port$o[4].channel typename "\"ned.IdealChannel\""
par RGG.node[41].port$o[8].channel typename "\"ned.IdealChannel\""
par RGG.node[45].port$o[11].channel typename "\"ned.IdealChannel\""
par RGG.node[41].port$o[9].channel typename "\"ned.IdealChannel\""
par RGG.node[47].port$o[10].channel typename "\"ned.IdealChannel\""
par RGG.node[41].port$o[10].channel typename "\"ned.IdealChannel\""
par RGG.node[48].port$o[10].channel typename "\"ned.IdealChannel\""
par RGG.node[41].port$o[11].channel typename "\"ned.IdealChannel\""
par RGG.node[71].port$o[8].channel typename "\"ned.IdealChannel\""
par RGG.node[41].port$o[12].channel typename "\"ned.IdealChannel\""
par RGG.node[82].port$o[8].channel typename "\"ned.IdealChannel\""
par RGG.node[41].port$o[13].channel typename "\"ned.IdealChannel\""
par RGG.node[97].port$o[13].channel typename "\"ned.IdealChannel\""
par RGG.node[41].port$o[14].channel typename "\"ned.IdealChannel\""
par RGG.node[98].port$o[11].channel typename "\"ned.IdealChannel\""
par RGG.node[42].port$o[3].channel typename "\"ned.IdealChannel\""
par RGG.node[48].port$o[11].channel typename "\"ned.IdealChannel\""
par RGG.node[42].port$o[4].channel typename "\"ned.IdealChannel\""
par RGG.node[51].port$o[2].channel typename "\"ned.IdealChannel\""
par RGG.node[42].port$o[5].channel typename "\"ned.IdealChannel\""
par RGG.node[66].port$o[1].channel typename "\"ned.IdealChannel\""
par RGG.node[42].port$o[6].channel typename "\"ned.IdealChannel\""
par RGG.node[73].port$o[2].channel typename "\"ned.IdealChannel\""
par RGG.node[42].port$o[7].channel typename "\"ned.IdealChannel\""
par RGG.node[83].port$o[5].channel typename "\"ned.IdealChannel\""
par RGG.node[42].port$o[8].channel typename "\"ned.IdealChannel\""
par RGG.node[87].port$o[2].channel typename "\"ned.IdealChannel\""
par RGG.node[42].port$o[9].channel typename "\"ned.IdealChannel\""
par RGG.node[89].port$o[10].channel typename "\"ned.IdealChannel\""
par RGG.node[42].port$o[10].channel typename "\"ned.IdealChannel\""
par RGG.node[92].port$o[9].channel typename "\"ned.IdealChannel\""
par RGG.node[43].port$o[4].channel typename "\"ned.IdealChannel\""
par RGG.node[55].port$o[5].channel typename "\"ned.IdealChannel\""
par RGG.node[43].port$o[5].channel typename "\"ned.IdealChannel\""
par RGG.node[59].port$o[6].channel typename "\"ned.IdealChannel\""
par RGG.node[43].port$o[6].channel typename "\"ned.IdealChannel\""
par RGG.node[62].port$o[7].channel typename "\"ned.IdealChannel\""
par RGG.node[43].port$o[7].channel typename "\"ned.IdealChannel\""
par RGG.node[64].port$o[3].channel typename "\"ned.IdealChannel\""
par RGG.node[43].port$o[8].channel typename "\"ned.IdealChannel\""
par RGG.node[76].port$o[4].channel typename "\"ned.IdealChannel\""
par RGG.node[43].port$o[9].channel typename "\"ned.IdealChannel\""
par RGG.node[93].port$o[6].channel typename "\"ned.IdealChannel\""
par RGG.node[43].port$o[10].channel typename "\"ned.IdealChannel\""
par RGG.node[96].port$o[5].channel typename "\"ned.IdealChannel\""
par RGG.node[43].port$o[11].channel typename "\"ned.IdealChannel\""
par RGG.node[99].port$o[5].channel typename "\"ned.IdealChannel\""
par RGG.node[44].port$o[8].channel typename "\"ned.IdealChannel\""
par RGG.node[45].port$o[12].channel typename "\"ned.IdealChannel\""
par RGG.node[44].port$o[9].channel typename "\"ned.IdealChannel\""
par RGG.node[49].port$o[6].channel typename "\"ned.IdealChannel\""
par RGG.node[44].port$o[10].channel typename "\"ned.IdealChannel\""
par RGG.node[53].port$o[9].channel typename "\"ned.IdealChannel\""
par RGG.node[44].port$o[11].channel typename "\"ned.IdealChannel\""
par RGG.node[68].port$o[8].channel typename "\"ned.IdealChannel\""
par RGG.node[44].port$o[12].channel typename "\"ned.IdealChannel\""
par RGG.node[69].port$o[10].channel typename "\"ned.IdealChannel\""
par RGG.node[44].port$o[13].channel typename "\"ned.IdealChannel\""
par RGG.node[71].port$o[9].channel typename "\"ned.IdealChannel\""
par RGG.node[44].port$o[14].channel typename "\"ned.IdealChannel\""
par RGG.node[74].port$o[7].channel typename "\"ned.IdealChannel\""
par RGG.node[44].port$o[15].channel typename "\"ned.IdealChannel\""
par RGG.node[77].port$o[6].channel typename "\"ned.IdealChannel\""
par RGG.node[44].port$o[16].channel typename "\"ned.IdealChannel\""
par RGG.node[79].port$o[6].channel typename "\"ned.IdealChannel\""
par RGG.node[44].port$o[17].channel typename "\"ned.IdealChannel\""
par RGG.node[85].port$o[7].channel typename "\"ned.IdealChannel\""
par RGG.node[44].port$o[18].channel typename "\"ned.IdealChannel\""
par RGG.node[90].port$o[9].channel typename "\"ned.IdealChannel\""
par RGG.node[45].port$o[13].channel typename "\"ned.IdealChannel\""
par RGG.node[47].port$o[11].channel typename "\"ned.IdealChannel\""
par RGG.node[45].port$o[14].channel typename "\"ned.IdealChannel\""
par RGG.node[56].port$o[7].channel typename "\"ned.IdealChannel\""
par RGG.node[45].port$o[15].channel typename "\"ned.IdealChannel\""
par RGG.node[69].port$o[11].channel typename "\"ned.IdealChannel\""
par RGG.node[45].port$o[16].channel typename "\"ned.IdealChannel\""
par RGG.node[71].port$o[10].channel typename "\"ned.IdealChannel\""
par RGG.node[45].port$o[17].channel typename "\"ned.IdealChannel\""
par RGG.node[89].port$o[11].channel typename "\"ned.IdealChannel\""
par RGG.node[45].port$o[18].channel typename "\"ned.IdealChannel\""
par RGG.node[92].port$o[10].channel typename "\"ned.IdealChannel\""
par RGG.node[45].port$o[19].channel typename "\"ned.IdealChannel\""
par RGG.node[97].port$o[14].channel typename "\"ned.IdealChannel\""
par RGG.node[46].port$o[3].channel typename "\"ned.IdealChannel\""
par RGG.node[60].port$o[5].channel typename "\"ned.IdealChannel\""
par RGG.node[46].port$o[4].channel typename "\"ned.IdealChannel\""
par RGG.node[65].port$o[5].channel typename "\"ned.IdealChannel\""
par RGG.node[46].port$o[5].channel typename "\"ned.IdealChannel\""
par RGG.node[67].port$o[6].channel typename "\"ned.IdealChannel\""
par RGG.node[46].port$o[6].channel typename "\"ned.IdealChannel\""
par RGG.node[78].port$o[3].channel typename "\"ned.IdealChannel\""
par RGG.node[46].port$o[7].channel typename "\"ned.IdealChannel\""
par RGG.node[81].port$o[5].channel typename "\"ned.IdealChannel\""
par RGG.node[46].port$o[8].channel typename "\"ned.IdealChannel\""
par RGG.node[88].port$o[5].channel typename "\"ned.IdealChannel\""
par RGG.node[47].port$o[12].channel typename "\"ned.IdealChannel\""
par RGG.node[62].port$o[8].channel typename "\"ned.IdealChannel\""
par RGG.node[47].port$o[13].channel typename "\"ned.IdealChannel\""
par RGG.node[63].port$o[7].channel typename "\"ned.IdealChannel\""
par RGG.node[47].port$o[14].channel typename "\"ned.IdealChannel\""
par RGG.node[71].port$o[11].channel typename "\"ned.IdealChannel\""
par RGG.node[47].port$o[15].channel typename "\"ned.IdealChannel\""
par RGG.node[82].port$o[9].channel typename "\"ned.IdealChannel\""
par RGG.node[47].port$o[16].channel typename "\"ned.IdealChannel\""
par RGG.node[90].port$o[10].channel typename "\"ned.IdealChannel\""
par RGG.node[47].port$o[17].channel typename "\"ned.IdealChannel\""
par RGG.node[97].port$o[15].channel typename "\"ned.IdealChannel\""
par RGG.node[48].port$o[12].channel typename "\"ned.IdealChannel\""
par RGG.node[83].port$o[6].channel typename "\"ned.IdealChannel\""
par RGG.node[48].port$o[13].channel typename "\"ned.IdealChannel\""
par RGG.node[87].port$o[3].channel typename "\"ned.IdealChannel\""
par RGG.node[48].port$o[14].channel typename "\"ned.IdealChannel\""
par RGG.node[89].port$o[12].channel typename "\"ned.IdealChannel\""
par RGG.node[48].port$o[15].channel typename "\"ned.IdealChannel\""
par RGG.node[92].port$o[11].channel typename "\"ned.IdealChannel\""
par RGG.node[48].port$o[16].channel typename "\"ned.IdealChannel\""
par RGG.node[98].port$o[12].channel typename "\"ned.IdealChannel\""
par RGG.node[49].port$o[7].channel typename "\"ned.IdealChannel\""
par RGG.node[50].port$o[5].channel typename "\"ned.IdealChannel\""
par RGG.node[49].port$o[8].channel typename "\"ned.IdealChannel\""
par RGG.node[52].port$o[6].channel typename "\"ned.IdealChannel\""
par RGG.node[49].port$o[9].channel typename "\"ned.IdealChannel\""
par RGG.node[56].port$o[8].channel typename "\"ned.IdealChannel\""
par RGG.node[49].port$o[10].channel typename "\"ned.IdealChannel\""
par RGG.node[69].port$o[12].channel typename "\"ned.IdealChannel\""
par RGG.node[49].port$o[11].channel typename "\"ned.IdealChannel\""
par RGG.node[74].port$o[8].channel typename "\"ned.IdealChannel\""
par RGG.node[49].port$o[12].channel typename "\"ned.IdealChannel\""
par RGG.node[77].port$o[7].channel typename "\"ned.IdealChannel\""
par RGG.node[50].port$o[6].channel typename "\"ned.IdealChannel\""
par RGG.node[52].port$o[7].channel typename "\"ned.IdealChannel\""
par RGG.node[50].port$o[7].channel typename "\"ned.IdealChannel\""
par RGG.node[56].port$o[9].channel typename "\"ned.IdealChannel\""
par RGG.node[50].port$o[8].channel typename "\"ned.IdealChannel\""
par RGG.node[69].port$o[13].channel typename "\"ned.IdealChannel\""
par RGG.node[50].port$o[9].channel typename "\"ned.IdealChannel\""
par RGG.node[74].port$o[9].channel typename "\"ned.IdealChannel\""
par RGG.node[50].port$o[10].channel typename "\"ned.IdealChannel\""
par RGG.node[77].port$o[8].channel typename "\"ned.IdealChannel\""
par RGG.node[51].port$o[3].channel typename "\"ned.IdealChannel\""
par RGG.node[66].port$o[2].channel typename "\"ned.IdealChannel\""
par RGG.node[51].port$o[4].channel typename "\"ned.IdealChannel\""
par RGG.node[73].port$o[3].channel typename "\"ned.IdealChannel\""
par RGG.node[51].port$o[5].channel typename "\"ned.IdealChannel\""
par RGG.node[83].port$o[7].channel typename "\"ned.IdealChannel\""
par RGG.node[51].port$o[6].channel typename "\"ned.IdealChannel\""
par RGG.node[87].port$o[4].channel typename "\"ned.IdealChannel\""
par RGG.node[52].port$o[8].channel typename "\"ned.IdealChannel\""
par RGG.node[56].port$o[10].channel typename "\"ned.IdealChannel\""
par RGG.node[52].port$o[9].channel typename "\"ned.IdealChannel\""
par RGG.node[69].port$o[14].channel typename "\"ned.IdealChannel\""
par RGG.node[52].port$o[10].channel typename "\"ned.IdealChannel\""
par RGG.node[74].port$o[10].channel typename "\"ned.IdealChannel\""
par RGG.node[52].port$o[11].channel typename "\"ned.IdealChannel\""
par RGG.node[77].port$o[9].channel typename "\"ned.IdealChannel\""
par RGG.node[53].port$o[10].channel typename "\"ned.IdealChannel\""
par RGG.node[57].port$o[7].channel typename "\"ned.IdealChannel\""
par RGG.node[53].port$o[11].channel typename "\"ned.IdealChannel\""
par RGG.node[61].port$o[7].channel typename "\"ned.IdealChannel\""
par RGG.node[53].port$o[12].channel typename "\"ned.IdealChannel\""
par RGG.node[63].port$o[8].channel typename "\"ned.IdealChannel\""
par RGG.node[53].port$o[13].channel typename "\"ned.IdealChannel\""
par RGG.node[68].port$o[9].channel typename "\"ned.IdealChannel\""
par RGG.node[53].port$o[14].channel typename "\"ned.IdealChannel\""
par RGG.node[70].port$o[7].channel typename "\"ned.IdealChannel\""
par RGG.node[53].port$o[15].channel typename "\"ned.IdealChannel\""
par RGG.node[71].port$o[12].channel typename "\"ned.IdealChannel\""
par RGG.node[53].port$o[16].channel typename "\"ned.IdealChannel\""
par RGG.node[72].port$o[6].channel typename "\"ned.IdealChannel\""
par RGG.node[53].port$o[17].channel typename "\"ned.IdealChannel\""
par RGG.node[84].port$o[7].channel typename "\"ned.IdealChannel\""
par RGG.node[53].port$o[18].channel typename "\"ned.IdealChannel\""
par RGG.node[85].port$o[8].channel typename "\"ned.IdealChannel\""
par RGG.node[53].port$o[19].channel typename "\"ned.IdealChannel\""
par RGG.node[86].port$o[6].channel typename "\"ned.IdealChannel\""
par RGG.node[53].port$o[20].channel typename "\"ned.IdealChannel\""
[...]
par RGG.node[88].port$o[8].channel typename "\"ned.IdealChannel\""
par RGG.node[67].port$o[12].channel typename "\"ned.IdealChannel\""
par RGG.node[99].port$o[10].channel typename "\"ned.IdealChannel\""
par RGG.node[68].port$o[13].channel typename "\"ned.IdealChannel\""
par RGG.node[69].port$o[16].channel typename "\"ned.IdealChannel\""
par RGG.node[68].port$o[14].channel typename "\"ned.IdealChannel\""
par RGG.node[70].port$o[12].channel typename "\"ned.IdealChannel\""
par RGG.node[68].port$o[15].channel typename "\"ned.IdealChannel\""
par RGG.node[71].port$o[14].channel typename "\"ned.IdealChannel\""
par RGG.node[68].port$o[16].channel typename "\"ned.IdealChannel\""
par RGG.node[72].port$o[10].channel typename "\"ned.IdealChannel\""
par RGG.node[68].port$o[17].channel typename "\"ned.IdealChannel\""
par RGG.node[79].port$o[8].channel typename "\"ned.IdealChannel\""
par RGG.node[68].port$o[18].channel typename "\"ned.IdealChannel\""
par RGG.node[84].port$o[12].channel typename "\"ned.IdealChannel\""
par RGG.node[68].port$o[19].channel typename "\"ned.IdealChannel\""
par RGG.node[85].port$o[10].channel typename "\"ned.IdealChannel\""
par RGG.node[68].port$o[20].channel typename "\"ned.IdealChannel\""
par RGG.node[90].port$o[16].channel typename "\"ned.IdealChannel\""
par RGG.node[68].port$o[21].channel typename "\"ned.IdealChannel\""
par RGG.node[94].port$o[8].channel typename "\"ned.IdealChannel\""
par RGG.node[69].port$o[17].channel typename "\"ned.IdealChannel\""
par RGG.node[71].port$o[15].channel typename "\"ned.IdealChannel\""
par RGG.node[69].port$o[18].channel typename "\"ned.IdealChannel\""
par RGG.node[74].port$o[12].channel typename "\"ned.IdealChannel\""
par RGG.node[69].port$o[19].channel typename "\"ned.IdealChannel\""
par RGG.node[77].port$o[10].channel typename "\"ned.IdealChannel\""
par RGG.node[69].port$o[20].channel typename "\"ned.IdealChannel\""
par RGG.node[79].port$o[9].channel typename "\"ned.IdealChannel\""
par RGG.node[69].port$o[21].channel typename "\"ned.IdealChannel\""
par RGG.node[97].port$o[16].channel typename "\"ned.IdealChannel\""
par RGG.node[70].port$o[13].channel typename "\"ned.IdealChannel\""
par RGG.node[72].port$o[11].channel typename "\"ned.IdealChannel\""
par RGG.node[70].port$o[14].channel typename "\"ned.IdealChannel\""
par RGG.node[84].port$o[13].channel typename "\"ned.IdealChannel\""
par RGG.node[70].port$o[15].channel typename "\"ned.IdealChannel\""
par RGG.node[85].port$o[11].channel typename "\"ned.IdealChannel\""
par RGG.node[70].port$o[16].channel typename "\"ned.IdealChannel\""
par RGG.node[86].port$o[10].channel typename "\"ned.IdealChannel\""
par RGG.node[70].port$o[17].channel typename "\"ned.IdealChannel\""
par RGG.node[90].port$o[17].channel typename "\"ned.IdealChannel\""
par RGG.node[70].port$o[18].channel typename "\"ned.IdealChannel\""
par RGG.node[94].port$o[9].channel typename "\"ned.IdealChannel\""
par RGG.node[71].port$o[16].channel typename "\"ned.IdealChannel\""
par RGG.node[90].port$o[18].channel typename "\"ned.IdealChannel\""
par RGG.node[71].port$o[17].channel typename "\"ned.IdealChannel\""
par RGG.node[97].port$o[17].channel typename "\"ned.IdealChannel\""
par RGG.node[72].port$o[12].channel typename "\"ned.IdealChannel\""
par RGG.node[84].port$o[14].channel typename "\"ned.IdealChannel\""
par RGG.node[72].port$o[13].channel typename "\"ned.IdealChannel\""
par RGG.node[85].port$o[12].channel typename "\"ned.IdealChannel\""
par RGG.node[72].port$o[14].channel typename "\"ned.IdealChannel\""
par RGG.node[86].port$o[11].channel typename "\"ned.IdealChannel\""
par RGG.node[72].port$o[15].channel typename "\"ned.IdealChannel\""
par RGG.node[94].port$o[10].channel typename "\"ned.IdealChannel\""
par RGG.node[73].port$o[5].channel typename "\"ned.IdealChannel\""
par RGG.node[83].port$o[9].channel typename "\"ned.IdealChannel\""
par RGG.node[73].port$o[6].channel typename "\"ned.IdealChannel\""
par RGG.node[87].port$o[6].channel typename "\"ned.IdealChannel\""
par RGG.node[73].port$o[7].channel typename "\"ned.IdealChannel\""
par RGG.node[92].port$o[13].channel typename "\"ned.IdealChannel\""
par RGG.node[74].port$o[13].channel typename "\"ned.IdealChannel\""
par RGG.node[77].port$o[11].channel typename "\"ned.IdealChannel\""
par RGG.node[74].port$o[14].channel typename "\"ned.IdealChannel\""
par RGG.node[79].port$o[10].channel typename "\"ned.IdealChannel\""
par RGG.node[75].port$o[6].channel typename "\"ned.IdealChannel\""
par RGG.node[80].port$o[4].channel typename "\"ned.IdealChannel\""
par RGG.node[75].port$o[7].channel typename "\"ned.IdealChannel\""
par RGG.node[91].port$o[5].channel typename "\"ned.IdealChannel\""
par RGG.node[75].port$o[8].channel typename "\"ned.IdealChannel\""
par RGG.node[93].port$o[10].channel typename "\"ned.IdealChannel\""
par RGG.node[75].port$o[9].channel typename "\"ned.IdealChannel\""
par RGG.node[95].port$o[8].channel typename "\"ned.IdealChannel\""
par RGG.node[76].port$o[7].channel typename "\"ned.IdealChannel\""
par RGG.node[93].port$o[11].channel typename "\"ned.IdealChannel\""
par RGG.node[76].port$o[8].channel typename "\"ned.IdealChannel\""
par RGG.node[96].port$o[10].channel typename "\"ned.IdealChannel\""
par RGG.node[77].port$o[12].channel typename "\"ned.IdealChannel\""
par RGG.node[79].port$o[11].channel typename "\"ned.IdealChannel\""
par RGG.node[78].port$o[7].channel typename "\"ned.IdealChannel\""
par RGG.node[81].port$o[10].channel typename "\"ned.IdealChannel\""
par RGG.node[78].port$o[8].channel typename "\"ned.IdealChannel\""
par RGG.node[88].port$o[9].channel typename "\"ned.IdealChannel\""
par RGG.node[79].port$o[12].channel typename "\"ned.IdealChannel\""
par RGG.node[85].port$o[13].channel typename "\"ned.IdealChannel\""
par RGG.node[79].port$o[13].channel typename "\"ned.IdealChannel\""
par RGG.node[94].port$o[11].channel typename "\"ned.IdealChannel\""
par RGG.node[80].port$o[5].channel typename "\"ned.IdealChannel\""
par RGG.node[91].port$o[6].channel typename "\"ned.IdealChannel\""
par RGG.node[80].port$o[6].channel typename "\"ned.IdealChannel\""
par RGG.node[95].port$o[9].channel typename "\"ned.IdealChannel\""
par RGG.node[81].port$o[11].channel typename "\"ned.IdealChannel\""
par RGG.node[88].port$o[10].channel typename "\"ned.IdealChannel\""
par RGG.node[81].port$o[12].channel typename "\"ned.IdealChannel\""
par RGG.node[99].port$o[11].channel typename "\"ned.IdealChannel\""
par RGG.node[82].port$o[13].channel typename "\"ned.IdealChannel\""
par RGG.node[97].port$o[18].channel typename "\"ned.IdealChannel\""
par RGG.node[82].port$o[14].channel typename "\"ned.IdealChannel\""
par RGG.node[98].port$o[14].channel typename "\"ned.IdealChannel\""
par RGG.node[83].port$o[10].channel typename "\"ned.IdealChannel\""
par RGG.node[87].port$o[7].channel typename "\"ned.IdealChannel\""
par RGG.node[83].port$o[11].channel typename "\"ned.IdealChannel\""
par RGG.node[92].port$o[14].channel typename "\"ned.IdealChannel\""
par RGG.node[84].port$o[15].channel typename "\"ned.IdealChannel\""
par RGG.node[86].port$o[12].channel typename "\"ned.IdealChannel\""
par RGG.node[84].port$o[16].channel typename "\"ned.IdealChannel\""
par RGG.node[90].port$o[19].channel typename "\"ned.IdealChannel\""
par RGG.node[84].port$o[17].channel typename "\"ned.IdealChannel\""
par RGG.node[94].port$o[12].channel typename "\"ned.IdealChannel\""
par RGG.node[84].port$o[18].channel typename "\"ned.IdealChannel\""
par RGG.node[99].port$o[12].channel typename "\"ned.IdealChannel\""
par RGG.node[85].port$o[14].channel typename "\"ned.IdealChannel\""
par RGG.node[94].port$o[13].channel typename "\"ned.IdealChannel\""
par RGG.node[86].port$o[13].channel typename "\"ned.IdealChannel\""
par RGG.node[94].port$o[14].channel typename "\"ned.IdealChannel\""
par RGG.node[87].port$o[8].channel typename "\"ned.IdealChannel\""
par RGG.node[89].port$o[14].channel typename "\"ned.IdealChannel\""
par RGG.node[87].port$o[9].channel typename "\"ned.IdealChannel\""
par RGG.node[92].port$o[15].channel typename "\"ned.IdealChannel\""
par RGG.node[89].port$o[15].channel typename "\"ned.IdealChannel\""
par RGG.node[92].port$o[16].channel typename "\"ned.IdealChannel\""
par RGG.node[89].port$o[16].channel typename "\"ned.IdealChannel\""
par RGG.node[97].port$o[19].channel typename "\"ned.IdealChannel\""
par RGG.node[90].port$o[20].channel typename "\"ned.IdealChannel\""
par RGG.node[94].port$o[15].channel typename "\"ned.IdealChannel\""
par RGG.node[90].port$o[21].channel typename "\"ned.IdealChannel\""
par RGG.node[99].port$o[13].channel typename "\"ned.IdealChannel\""
par RGG.node[91].port$o[7].channel typename "\"ned.IdealChannel\""
par RGG.node[95].port$o[10].channel typename "\"ned.IdealChannel\""
par RGG.node[93].port$o[12].channel typename "\"ned.IdealChannel\""
par RGG.node[96].port$o[11].channel typename "\"ned.IdealChannel\""
par RGG.node[96].port$o[12].channel typename "\"ned.IdealChannel\""
par RGG.node[99].port$o[14].channel typename "\"ned.IdealChannel\""
par RGG.node[0] typename "\"randomw.Node\""
par RGG.node[0] xCor 0.407687
par RGG.node[0] yCor 0.644008
par RGG.node[1] typename "\"randomw.Node\""
par RGG.node[1] xCor 0.055366
par RGG.node[1] yCor 0.112171
par RGG.node[2] typename "\"randomw.Node\""
par RGG.node[2] xCor 0.788535
par RGG.node[2] yCor 0.70503
par RGG.node[3] typename "\"randomw.Node\""
par RGG.node[3] xCor 0.287305
par RGG.node[3] yCor 0.145046
par RGG.node[4] typename "\"randomw.Node\""
par RGG.node[4] xCor 0.450351
par RGG.node[4] yCor 0.586214
par RGG.node[5] typename "\"randomw.Node\""
par RGG.node[5] xCor 0.303912
par RGG.node[5] yCor 0.13408
par RGG.node[6] typename "\"randomw.Node\""
par RGG.node[6] xCor 0.5264
par RGG.node[6] yCor 0.171444
par RGG.node[7] typename "\"randomw.Node\""
par RGG.node[7] xCor 0.623812
par RGG.node[7] yCor 0.912035
par RGG.node[8] typename "\"randomw.Node\""
par RGG.node[8] xCor 0.776775
par RGG.node[8] yCor 0.102004
par RGG.node[9] typename "\"randomw.Node\""
par RGG.node[9] xCor 0.686242
par RGG.node[9] yCor 0.500068
par RGG.node[10] typename "\"randomw.Node\""
par RGG.node[10] xCor 0.980939
par RGG.node[10] yCor 0.52397
par RGG.node[11] typename "\"randomw.Node\""
par RGG.node[11] xCor 0.600816
par RGG.node[11] yCor 0.843058
par RGG.node[12] typename "\"randomw.Node\""
par RGG.node[12] xCor 0.813969
par RGG.node[12] yCor 0.410272
par RGG.node[13] typename "\"randomw.Node\""
par RGG.node[13] xCor 0.708645
par RGG.node[13] yCor 0.281559
par RGG.node[14] typename "\"randomw.Node\""
par RGG.node[14] xCor 0.0275347
par RGG.node[14] yCor 0.234097
par RGG.node[15] typename "\"randomw.Node\""
par RGG.node[15] xCor 0.904267
par RGG.node[15] yCor 0.401725
par RGG.node[16] typename "\"randomw.Node\""
par RGG.node[16] xCor 0.449905
par RGG.node[16] yCor 0.95144
par RGG.node[17] typename "\"randomw.Node\""
par RGG.node[17] xCor 0.118925
par RGG.node[17] yCor 0.863402
par RGG.node[18] typename "\"randomw.Node\""
par RGG.node[18] xCor 0.8353
par RGG.node[18] yCor 0.813626
par RGG.node[19] typename "\"randomw.Node\""
par RGG.node[19] xCor 0.202248
par RGG.node[19] yCor 0.423974
par RGG.node[20] typename "\"randomw.Node\""
par RGG.node[20] xCor 0.174203
par RGG.node[20] yCor 0.653816
par RGG.node[21] typename "\"randomw.Node\""
par RGG.node[21] xCor 0.449147
par RGG.node[21] yCor 0.57367
par RGG.node[22] typename "\"randomw.Node\""
par RGG.node[22] xCor 0.669795
par RGG.node[22] yCor 0.680217
par RGG.node[23] typename "\"randomw.Node\""
par RGG.node[23] xCor 0.957399
par RGG.node[23] yCor 0.210746
par RGG.node[24] typename "\"randomw.Node\""
par RGG.node[24] xCor 0.833333
par RGG.node[24] yCor 0.579048
par RGG.node[25] typename "\"randomw.Node\""
par RGG.node[25] xCor 0.50831
par RGG.node[25] yCor 0.616369
par RGG.node[26] typename "\"randomw.Node\""
par RGG.node[26] xCor 0.630024
par RGG.node[26] yCor 0.168671
par RGG.node[27] typename "\"randomw.Node\""
par RGG.node[27] xCor 0.835035
par RGG.node[27] yCor 0.357411
par RGG.node[28] typename "\"randomw.Node\""
par RGG.node[28] xCor 0.447332
par RGG.node[28] yCor 0.0954306
par RGG.node[29] typename "\"randomw.Node\""
par RGG.node[29] xCor 0.76229
par RGG.node[29] yCor 0.533499
par RGG.node[30] typename "\"randomw.Node\""
par RGG.node[30] xCor 0.636922
par RGG.node[30] yCor 0.283757
par RGG.node[31] typename "\"randomw.Node\""
par RGG.node[31] xCor 0.362296
par RGG.node[31] yCor 0.760937
par RGG.node[32] typename "\"randomw.Node\""
par RGG.node[32] xCor 0.0145745
par RGG.node[32] yCor 0.919309
par RGG.node[33] typename "\"randomw.Node\""
par RGG.node[33] xCor 0.541985
par RGG.node[33] yCor 0.674723
par RGG.node[34] typename "\"randomw.Node\""
par RGG.node[34] xCor 0.318155
par RGG.node[34] yCor 0.826108
par RGG.node[35] typename "\"randomw.Node\""
par RGG.node[35] xCor 0.14499
par RGG.node[35] yCor 0.978619
par RGG.node[36] typename "\"randomw.Node\""
par RGG.node[36] xCor 0.548892
par RGG.node[36] yCor 0.0813608
par RGG.node[37] typename "\"randomw.Node\""
par RGG.node[37] xCor 0.187481
par RGG.node[37] yCor 0.523487
par RGG.node[38] typename "\"randomw.Node\""
par RGG.node[38] xCor 0.398981
par RGG.node[38] yCor 0.251785
par RGG.node[39] typename "\"randomw.Node\""
par RGG.node[39] xCor 0.240038
par RGG.node[39] yCor 0.710174
par RGG.node[40] typename "\"randomw.Node\""
par RGG.node[40] xCor 0.0366549
par RGG.node[40] yCor 0.0594449
par RGG.node[41] typename "\"randomw.Node\""
par RGG.node[41] xCor 0.568545
par RGG.node[41] yCor 0.572188
par RGG.node[42] typename "\"randomw.Node\""
par RGG.node[42] xCor 0.922765
par RGG.node[42] yCor 0.80749
par RGG.node[43] typename "\"randomw.Node\""
par RGG.node[43] xCor 0.179055
par RGG.node[43] yCor 0.489285
par RGG.node[44] typename "\"randomw.Node\""
par RGG.node[44] xCor 0.703078
par RGG.node[44] yCor 0.242492
par RGG.node[45] typename "\"randomw.Node\""
par RGG.node[45] xCor 0.720013
par RGG.node[45] yCor 0.483482
par RGG.node[46] typename "\"randomw.Node\""
par RGG.node[46] xCor 0.031064
par RGG.node[46] yCor 0.000395626
par RGG.node[47] typename "\"randomw.Node\""
par RGG.node[47] xCor 0.582825
par RGG.node[47] yCor 0.504802
par RGG.node[48] typename "\"randomw.Node\""
par RGG.node[48] xCor 0.697678
par RGG.node[48] yCor 0.747363
par RGG.node[49] typename "\"randomw.Node\""
par RGG.node[49] xCor 0.909853
par RGG.node[49] yCor 0.263079
par RGG.node[50] typename "\"randomw.Node\""
par RGG.node[50] xCor 0.966698
par RGG.node[50] yCor 0.311218
par RGG.node[51] typename "\"randomw.Node\""
par RGG.node[51] xCor 0.83573
par RGG.node[51] yCor 0.988761
par RGG.node[52] typename "\"randomw.Node\""
par RGG.node[52] xCor 0.951121
par RGG.node[52] yCor 0.281648
par RGG.node[53] typename "\"randomw.Node\""
par RGG.node[53] xCor 0.506326
par RGG.node[53] yCor 0.165279
par RGG.node[54] typename "\"randomw.Node\""
par RGG.node[54] xCor 0.194498
par RGG.node[54] yCor 0.895517
par RGG.node[55] typename "\"randomw.Node\""
par RGG.node[55] xCor 0.0696448
par RGG.node[55] yCor 0.624682
par RGG.node[56] typename "\"randomw.Node\""
par RGG.node[56] xCor 0.925796
par RGG.node[56] yCor 0.473032
par RGG.node[57] typename "\"randomw.Node\""
par RGG.node[57] xCor 0.391326
par RGG.node[57] yCor 0.171639
par RGG.node[58] typename "\"randomw.Node\""
par RGG.node[58] xCor 0.408171
par RGG.node[58] yCor 0.796344
par RGG.node[59] typename "\"randomw.Node\""
par RGG.node[59] xCor 0.170905
par RGG.node[59] yCor 0.60959
par RGG.node[60] typename "\"randomw.Node\""
par RGG.node[60] xCor 0.132345
par RGG.node[60] yCor 0.167323
par RGG.node[61] typename "\"randomw.Node\""
par RGG.node[61] xCor 0.509981
par RGG.node[61] yCor 0.0510921
par RGG.node[62] typename "\"randomw.Node\""
par RGG.node[62] xCor 0.340744
par RGG.node[62] yCor 0.45788
par RGG.node[63] typename "\"randomw.Node\""
par RGG.node[63] xCor 0.45692
par RGG.node[63] yCor 0.328761
par RGG.node[64] typename "\"randomw.Node\""
par RGG.node[64] xCor 0.048601
par RGG.node[64] yCor 0.400599
par RGG.node[65] typename "\"randomw.Node\""
par RGG.node[65] xCor 0.2566
par RGG.node[65] yCor 0.0371884
par RGG.node[66] typename "\"randomw.Node\""
par RGG.node[66] xCor 0.921094
par RGG.node[66] yCor 0.985316
par RGG.node[67] typename "\"randomw.Node\""
par RGG.node[67] xCor 0.0883537
par RGG.node[67] yCor 0.240674
par RGG.node[68] typename "\"randomw.Node\""
par RGG.node[68] xCor 0.613017
par RGG.node[68] yCor 0.162285
par RGG.node[69] typename "\"randomw.Node\""
par RGG.node[69] xCor 0.751329
par RGG.node[69] yCor 0.307591
par RGG.node[70] typename "\"randomw.Node\""
par RGG.node[70] xCor 0.468243
par RGG.node[70] yCor 0.0891602
par RGG.node[71] typename "\"randomw.Node\""
par RGG.node[71] xCor 0.633443
par RGG.node[71] yCor 0.360388
par RGG.node[72] typename "\"randomw.Node\""
par RGG.node[72] xCor 0.428707
par RGG.node[72] yCor 0.00858416
par RGG.node[73] typename "\"randomw.Node\""
par RGG.node[73] xCor 0.958142
par RGG.node[73] yCor 0.839741
par RGG.node[74] typename "\"randomw.Node\""
par RGG.node[74] xCor 0.879857
par RGG.node[74] yCor 0.249057
par RGG.node[75] typename "\"randomw.Node\""
par RGG.node[75] xCor 0.118201
par RGG.node[75] yCor 0.919879
par RGG.node[76] typename "\"randomw.Node\""
par RGG.node[76] xCor 0.0774494
par RGG.node[76] yCor 0.656557
par RGG.node[77] typename "\"randomw.Node\""
par RGG.node[77] xCor 0.895141
par RGG.node[77] yCor 0.197964
par RGG.node[78] typename "\"randomw.Node\""
par RGG.node[78] xCor 0.0120821
par RGG.node[78] yCor 0.187412
par RGG.node[79] typename "\"randomw.Node\""
par RGG.node[79] xCor 0.745743
par RGG.node[79] yCor 0.0666483
par RGG.node[80] typename "\"randomw.Node\""
par RGG.node[80] xCor 0.133722
par RGG.node[80] yCor 0.998645
par RGG.node[81] typename "\"randomw.Node\""
par RGG.node[81] xCor 0.147753
par RGG.node[81] yCor 0.138325
par RGG.node[82] typename "\"randomw.Node\""
par RGG.node[82] xCor 0.45571
par RGG.node[82] yCor 0.570954
par RGG.node[83] typename "\"randomw.Node\""
par RGG.node[83] xCor 0.823827
par RGG.node[83] yCor 0.866495
par RGG.node[84] typename "\"randomw.Node\""
par RGG.node[84] xCor 0.401696
par RGG.node[84] yCor 0.160969
par RGG.node[85] typename "\"randomw.Node\""
par RGG.node[85] xCor 0.658526
par RGG.node[85] yCor 0.0631458
par RGG.node[86] typename "\"randomw.Node\""
par RGG.node[86] xCor 0.383566
par RGG.node[86] yCor 0.0242159
par RGG.node[87] typename "\"randomw.Node\""
par RGG.node[87] xCor 0.93226
par RGG.node[87] yCor 0.817762
par RGG.node[88] typename "\"randomw.Node\""
par RGG.node[88] xCor 0.141406
par RGG.node[88] yCor 0.110923
par RGG.node[89] typename "\"randomw.Node\""
par RGG.node[89] xCor 0.866529
par RGG.node[89] yCor 0.57982
par RGG.node[90] typename "\"randomw.Node\""
par RGG.node[90] xCor 0.493169
par RGG.node[90] yCor 0.272779
par RGG.node[91] typename "\"randomw.Node\""
par RGG.node[91] xCor 0.133076
par RGG.node[91] yCor 0.958355
par RGG.node[92] typename "\"randomw.Node\""
par RGG.node[92] xCor 0.87631
par RGG.node[92] yCor 0.645462
par RGG.node[93] typename "\"randomw.Node\""
par RGG.node[93] xCor 0.112716
par RGG.node[93] yCor 0.699391
par RGG.node[94] typename "\"randomw.Node\""
par RGG.node[94] xCor 0.524253
par RGG.node[94] yCor 0.0259618
par RGG.node[95] typename "\"randomw.Node\""
par RGG.node[95] xCor 0.283892
par RGG.node[95] yCor 0.934879
par RGG.node[96] typename "\"randomw.Node\""
par RGG.node[96] xCor 0.181247
par RGG.node[96] yCor 0.544
par RGG.node[97] typename "\"randomw.Node\""
par RGG.node[97] xCor 0.666699
par RGG.node[97] yCor 0.491009
par RGG.node[98] typename "\"randomw.Node\""
par RGG.node[98] xCor 0.519644
par RGG.node[98] yCor 0.793068
par RGG.node[99] typename "\"randomw.Node\""
par RGG.node[99] xCor 0.289602
par RGG.node[99] yCor 0.324032
par RGG.host typename "\"randomw.Host\""
par RGG.host startNodeIndex 1
attr mutable ""
par RGG.host startNode 11
par RGG typename "\"randomw.simulations.RGG\""
par RGG numNodes 100
par RGG rc 0.25
par RGG enableDuplication true
attr mutable ""
par RGG noBacktracking false
attr mutable ""
par RGG numWalkers 1

