file 63285 1756984405                                           
version 3
run General-460-20250904-14:13:25-15993
attr configname General
attr datetime 20250904-14:13:25
attr datetimef 20250904-141325
attr experiment General
attr inifile omnetpp.ini
attr iterationvars ""
attr iterationvarsd ""
attr iterationvarsf ""
attr measurement ""
attr network TaxiNetwork
attr processid 15993
attr repetition 460
attr replication #460
attr resultdir results
attr runnumber 460
attr seedset 460
config network TaxiNetwork
config seed-set 460
config num-rngs 1
config sim-time-limit 10s
config repeat 500
config *.numWalkers 1
config *.enableDuplication true
config *.rc 700
config **.node[0].xCor 2933
config **.node[0].yCor 2747
config **.node[1].xCor 2919
config **.node[1].yCor 2817
config **.node[2].xCor 2910
config **.node[2].yCor 2861
config **.node[3].xCor 2429
config **.node[3].yCor 2851
config **.node[4].xCor 2908
config **.node[4].yCor 2714
config **.node[5].xCor 2606
config **.node[5].yCor 2722
config **.node[6].xCor 2575
config **.node[6].yCor 2753
config **.node[7].xCor 2654
config **.node[7].yCor 2513
config **.node[8].xCor 2773
config **.node[8].yCor 2580
config **.node[9].xCor 3043
config **.node[9].yCor 2780
config **.node[10].xCor 3020
config **.node[10].yCor 2813
config **.node[11].xCor 2599
config **.node[11].yCor 2300
config **.node[12].xCor 2917
config **.node[12].yCor 2698
config **.node[13].xCor 2625
config **.node[13].yCor 2641
config **.node[14].xCor 2604
config **.node[14].yCor 2790
config **.node[15].xCor 2786
config **.node[15].yCor 3082
config **.node[16].xCor 2603
config **.node[16].yCor 2802
config **.node[17].xCor 2637
config **.node[17].yCor 2869
config **.node[18].xCor 2675
config **.node[18].yCor 2955
config **.node[19].xCor 2845
config **.node[19].yCor 2937
config **.node[20].xCor 2860
config **.node[20].yCor 2888
config **.node[21].xCor 2843
config **.node[21].yCor 4158
config **.node[22].xCor 2852
config **.node[22].yCor 4017
config **.node[23].xCor 2892
config **.node[23].yCor 4961
config **.node[24].xCor 2313
config **.node[24].yCor 3993
config **.node[25].xCor 2891
config **.node[25].yCor 4959
config **.node[26].xCor 2370
config **.node[26].yCor 4050
config **.node[27].xCor 2788
config **.node[27].yCor 3958
config **.node[28].xCor 2819
config **.node[28].yCor 4428
config **.node[29].xCor 2790
config **.node[29].yCor 3761
config **.node[30].xCor 2809
config **.node[30].yCor 2908
config **.node[31].xCor 2919
config **.node[31].yCor 3575
config **.node[32].xCor 2946
config **.node[32].yCor 3466
config **.node[33].xCor 2911
config **.node[33].yCor 3453
config **.node[34].xCor 2370
config **.node[34].yCor 3656
config **.node[35].xCor 2438
config **.node[35].yCor 3738
config **.node[36].xCor 2737
config **.node[36].yCor 3570
config **.node[37].xCor 2921
config **.node[37].yCor 3698
config **.node[38].xCor 2907
config **.node[38].yCor 5197
config **.node[39].xCor 2860
config **.node[39].yCor 3852
config **.node[40].xCor 2927
config **.node[40].yCor 3684
config **.node[41].xCor 3023
config **.node[41].yCor 5313
config **.node[42].xCor 3220
config **.node[42].yCor 5811
config **.node[43].xCor 3432
config **.node[43].yCor 5715
config **.node[44].xCor 2754
config **.node[44].yCor 2463
config **.node[45].xCor 2646
config **.node[45].yCor 2673
config **.node[46].xCor 3051
config **.node[46].yCor 2792
config **.node[47].xCor 1666
config **.node[47].yCor 3697
config **.node[48].xCor 1662
config **.node[48].yCor 3694
config **.node[49].xCor 1664
config **.node[49].yCor 3667
config **.node[50].xCor 1660
config **.node[50].yCor 3664
config **.node[51].xCor 1710
config **.node[51].yCor 3573
config **.node[52].xCor 2082
config **.node[52].yCor 2650
config **.node[53].xCor 2086
config **.node[53].yCor 2657
config **.node[54].xCor 2257
config **.node[54].yCor 3232
config **.node[55].xCor 2258
config **.node[55].yCor 3225
config **.node[56].xCor 1926
config **.node[56].yCor 2570
config **.node[57].xCor 1926
config **.node[57].yCor 2576
config **.node[58].xCor 2104
config **.node[58].yCor 1758
config **.node[59].xCor 1957
config **.node[59].yCor 1826
config **.node[60].xCor 3473
config **.node[60].yCor 1523
config **.node[61].xCor 3335
config **.node[61].yCor 1726
config **.node[62].xCor 3478
config **.node[62].yCor 1517
config **.node[63].xCor 3386
config **.node[63].yCor 2119
config **.node[64].xCor 3474
config **.node[64].yCor 1762
config **.node[65].xCor 3797
config **.node[65].yCor 2099
config **.node[66].xCor 3642
config **.node[66].yCor 2136
config **.node[67].xCor 3481
config **.node[67].yCor 2334
config **.node[68].xCor 3088
config **.node[68].yCor 1505
config **.node[69].xCor 3037
config **.node[69].yCor 1693
config **.node[70].xCor 3026
config **.node[70].yCor 1700
config **.node[71].xCor 3019
config **.node[71].yCor 669
config **.node[72].xCor 3513
config **.node[72].yCor 1358
config **.node[73].xCor 3545
config **.node[73].yCor 1230
config **.node[74].xCor 4228
config **.node[74].yCor 4220
config **.node[75].xCor 3379
config **.node[75].yCor 1207
config **.node[76].xCor 3596
config **.node[76].yCor 963
config **.node[77].xCor 3637
config **.node[77].yCor 1188
config **.node[78].xCor 3759
config **.node[78].yCor 1030
config **.node[79].xCor 2918
config **.node[79].yCor 1455
config **.node[80].xCor 2711
config **.node[80].yCor 1297
config **.node[81].xCor 439
config **.node[81].yCor 1623
config **.node[82].xCor 2857
config **.node[82].yCor 3581
config **.node[83].xCor 2858
config **.node[83].yCor 3584
config **.node[84].xCor 2999
config **.node[84].yCor 2636
config **.node[85].xCor 2905
config **.node[85].yCor 2778
config **.node[86].xCor 2653
config **.node[86].yCor 2845
config **.node[87].xCor 2864
config **.node[87].yCor 2836
config **.node[88].xCor 2426
config **.node[88].yCor 2892
config **.node[89].xCor 2964
config **.node[89].yCor 2804
config **.node[90].xCor 2586
config **.node[90].yCor 3135
config **.node[91].xCor 2864
config **.node[91].yCor 2980
config **.node[92].xCor 2527
config **.node[92].yCor 3219
config **.node[93].xCor 2863
config **.node[93].yCor 3142
config **.node[94].xCor 2485
config **.node[94].yCor 3269
config **.node[95].xCor 2653
config **.node[95].yCor 1065
config **.node[96].xCor 4062
config **.node[96].yCor 400
config **.node[97].xCor 5762
config **.node[97].yCor 3023
config **.node[98].xCor 1414
config **.node[98].yCor 3461
config **.node[99].xCor 2911
config **.node[99].yCor 1737
config **.node[100].xCor 2595
config **.node[100].yCor 2299
config **.node[101].xCor 2702
config **.node[101].yCor 3419
config **.node[102].xCor 2813
config **.node[102].yCor 3307
config **.node[103].xCor 2638
config **.node[103].yCor 2258
config **.node[104].xCor 2590
config **.node[104].yCor 3125
config **.node[105].xCor 1856
config **.node[105].yCor 2990
config **.node[106].xCor 1894
config **.node[106].yCor 2239
config **.node[107].xCor 383
config **.node[107].yCor 1251
config **.node[108].xCor 3447
config **.node[108].yCor 5489
config **.node[109].xCor 3450
config **.node[109].yCor 5697
config **.node[110].xCor 2719
config **.node[110].yCor 1920
config **.node[111].xCor 2085
config **.node[111].yCor 2389
config **.node[112].xCor 1910
config **.node[112].yCor 2548
config **.node[113].xCor 2069
config **.node[113].yCor 2050
config **.node[114].xCor 2184
config **.node[114].yCor 2209
config **.node[115].xCor 2278
config **.node[115].yCor 2390
config **.node[116].xCor 2249
config **.node[116].yCor 2299
config **.node[117].xCor 2356
config **.node[117].yCor 2303
config **.node[118].xCor 2192
config **.node[118].yCor 2475
config **.node[119].xCor 1720
config **.node[119].yCor 2911
config **.node[120].xCor 2400
config **.node[120].yCor 2887
config **.node[121].xCor 3344
config **.node[121].yCor 1890
config **.node[122].xCor 3136
config **.node[122].yCor 2418
config **.node[123].xCor 3243
config **.node[123].yCor 2525
config **.node[124].xCor 2396
config **.node[124].yCor 1267
config **.node[125].xCor 467
config **.node[125].yCor 1875
config **.node[126].xCor 3506
config **.node[126].yCor 1221
config **.node[127].xCor 1034
config **.node[127].yCor 1474
config **.node[128].xCor 2908
config **.node[128].yCor 1784
config **.node[129].xCor 2876
config **.node[129].yCor 1761
config **.node[130].xCor 2849
config **.node[130].yCor 1795
config **.node[131].xCor 3029
config **.node[131].yCor 1859
config **.node[132].xCor 2924
config **.node[132].yCor 1848
config **.node[133].xCor 3493
config **.node[133].yCor 1559
config **.node[134].xCor 2760
config **.node[134].yCor 1761
config **.node[135].xCor 1644
config **.node[135].yCor 3755
config **.node[136].xCor 1463
config **.node[136].yCor 3432
config **.node[137].xCor 2595
config **.node[137].yCor 2849
config **.node[138].xCor 2581
config **.node[138].yCor 2867
config **.node[139].xCor 2524
config **.node[139].yCor 2911
config **.node[140].xCor 2570
config **.node[140].yCor 2924
config **.node[141].xCor 2676
config **.node[141].yCor 2890
config **.node[142].xCor 2666
config **.node[142].yCor 2876
config **.node[143].xCor 3735
config **.node[143].yCor 1726
config **.node[144].xCor 1637
config **.node[144].yCor 3438

vector 0 TaxiNetwork.node[11] visitedPerTimestep ETV
vector 1 TaxiNetwork.node[30] visitedPerTimestep ETV
vector 2 TaxiNetwork.node[10] visitedPerTimestep ETV
vector 3 TaxiNetwork.node[104] visitedPerTimestep ETV
vector 4 TaxiNetwork.node[53] visitedPerTimestep ETV
vector 5 TaxiNetwork.node[36] visitedPerTimestep ETV
vector 6 TaxiNetwork.node[21] visitedPerTimestep ETV
vector 7 TaxiNetwork.node[22] visitedPerTimestep ETV
vector 8 TaxiNetwork.node[29] visitedPerTimestep ETV
vector 9 TaxiNetwork.node[3] visitedPerTimestep ETV
vector 10 TaxiNetwork.node[90] visitedPerTimestep ETV
vector 11 TaxiNetwork.node[120] visitedPerTimestep ETV
vector 12 TaxiNetwork.node[20] visitedPerTimestep ETV
vector 13 TaxiNetwork.node[139] visitedPerTimestep ETV
vector 14 TaxiNetwork.node[85] visitedPerTimestep ETV
vector 15 TaxiNetwork.node[140] visitedPerTimestep ETV
vector 16 TaxiNetwork.node[13] visitedPerTimestep ETV
vector 17 TaxiNetwork.node[15] visitedPerTimestep ETV
vector 18 TaxiNetwork.node[9] visitedPerTimestep ETV
vector 19 TaxiNetwork.node[137] visitedPerTimestep ETV
vector 20 TaxiNetwork.node[142] visitedPerTimestep ETV
vector 21 TaxiNetwork.node[54] visitedPerTimestep ETV
vector 22 TaxiNetwork.node[5] visitedPerTimestep ETV
vector 23 TaxiNetwork.node[18] visitedPerTimestep ETV
vector 24 TaxiNetwork.node[1] visitedPerTimestep ETV
vector 25 TaxiNetwork.node[33] visitedPerTimestep ETV
vector 26 TaxiNetwork.node[27] visitedPerTimestep ETV
vector 27 TaxiNetwork.node[34] visitedPerTimestep ETV
vector 28 TaxiNetwork.node[102] visitedPerTimestep ETV
vector 29 TaxiNetwork.node[118] visitedPerTimestep ETV
vector 30 TaxiNetwork.node[138] visitedPerTimestep ETV
vector 31 TaxiNetwork.node[86] visitedPerTimestep ETV
vector 32 TaxiNetwork.node[12] visitedPerTimestep ETV
vector 33 TaxiNetwork.node[115] visitedPerTimestep ETV
vector 34 TaxiNetwork.node[100] visitedPerTimestep ETV
vector 35 TaxiNetwork.node[4] visitedPerTimestep ETV
vector 36 TaxiNetwork.node[67] visitedPerTimestep ETV
vector 37 TaxiNetwork.node[64] visitedPerTimestep ETV
vector 38 TaxiNetwork.node[63] visitedPerTimestep ETV
vector 39 TaxiNetwork.node[61] visitedPerTimestep ETV
vector 40 TaxiNetwork.node[79] visitedPerTimestep ETV
vector 41 TaxiNetwork.node[75] visitedPerTimestep ETV
vector 42 TaxiNetwork.node[69] visitedPerTimestep ETV
vector 43 TaxiNetwork.node[131] visitedPerTimestep ETV
vector 44 TaxiNetwork.node[70] visitedPerTimestep ETV
vector 45 TaxiNetwork.node[99] visitedPerTimestep ETV
vector 46 TaxiNetwork.node[110] visitedPerTimestep ETV
vector 47 TaxiNetwork.node[103] visitedPerTimestep ETV
vector 48 TaxiNetwork.node[91] visitedPerTimestep ETV
vector 49 TaxiNetwork.node[112] visitedPerTimestep ETV
vector 50 TaxiNetwork.node[111] visitedPerTimestep ETV
vector 51 TaxiNetwork.node[45] visitedPerTimestep ETV
vector 52 TaxiNetwork.node[88] visitedPerTimestep ETV
vector 53 TaxiNetwork.node[55] visitedPerTimestep ETV
vector 54 TaxiNetwork.node[94] visitedPerTimestep ETV
vector 55 TaxiNetwork.node[40] visitedPerTimestep ETV
vector 56 TaxiNetwork.node[32] visitedPerTimestep ETV
vector 57 TaxiNetwork.node[101] visitedPerTimestep ETV
vector 58 TaxiNetwork.node[19] visitedPerTimestep ETV
vector 59 TaxiNetwork.node[14] visitedPerTimestep ETV
vector 60 TaxiNetwork.node[52] visitedPerTimestep ETV
vector 61 TaxiNetwork.node[116] visitedPerTimestep ETV
vector 62 TaxiNetwork.node[16] visitedPerTimestep ETV
vector 63 TaxiNetwork.node[8] visitedPerTimestep ETV
vector 64 TaxiNetwork.node[46] visitedPerTimestep ETV
vector 65 TaxiNetwork.node[66] visitedPerTimestep ETV
vector 66 TaxiNetwork.node[72] visitedPerTimestep ETV
vector 67 TaxiNetwork.node[126] visitedPerTimestep ETV
vector 68 TaxiNetwork.node[143] visitedPerTimestep ETV
vector 69 TaxiNetwork.node[77] visitedPerTimestep ETV
vector 70 TaxiNetwork.node[60] visitedPerTimestep ETV
vector 71 TaxiNetwork.node[133] visitedPerTimestep ETV
vector 72 TaxiNetwork.node[44] visitedPerTimestep ETV
vector 73 TaxiNetwork.node[39] visitedPerTimestep ETV
vector 74 TaxiNetwork.node[35] visitedPerTimestep ETV
vector 75 TaxiNetwork.node[83] visitedPerTimestep ETV
vector 76 TaxiNetwork.node[74] visitedPerTimestep ETV
vector 77 TaxiNetwork.node[119] visitedPerTimestep ETV
vector 78 TaxiNetwork.node[105] visitedPerTimestep ETV
vector 79 TaxiNetwork.node[87] visitedPerTimestep ETV
vector 80 TaxiNetwork.node[122] visitedPerTimestep ETV
vector 81 TaxiNetwork.node[113] visitedPerTimestep ETV
vector 82 TaxiNetwork.node[128] visitedPerTimestep ETV
vector 83 TaxiNetwork.node[80] visitedPerTimestep ETV
vector 84 TaxiNetwork.node[68] visitedPerTimestep ETV
vector 85 TaxiNetwork.node[121] visitedPerTimestep ETV
vector 86 TaxiNetwork.node[124] visitedPerTimestep ETV
vector 87 TaxiNetwork.node[130] visitedPerTimestep ETV
vector 88 TaxiNetwork.node[134] visitedPerTimestep ETV
vector 89 TaxiNetwork.node[58] visitedPerTimestep ETV
vector 90 TaxiNetwork.node[114] visitedPerTimestep ETV
vector 91 TaxiNetwork.node[106] visitedPerTimestep ETV
vector 92 TaxiNetwork.node[17] visitedPerTimestep ETV
vector 93 TaxiNetwork.node[93] visitedPerTimestep ETV
vector 94 TaxiNetwork.node[37] visitedPerTimestep ETV
vector 95 TaxiNetwork.node[31] visitedPerTimestep ETV
vector 96 TaxiNetwork.node[7] visitedPerTimestep ETV
vector 97 TaxiNetwork.node[6] visitedPerTimestep ETV
vector 98 TaxiNetwork.node[117] visitedPerTimestep ETV
vector 99 TaxiNetwork.node[92] visitedPerTimestep ETV
vector 100 TaxiNetwork.node[0] visitedPerTimestep ETV
vector 101 TaxiNetwork.node[84] visitedPerTimestep ETV
vector 102 TaxiNetwork.node[144] visitedPerTimestep ETV
vector 103 TaxiNetwork.node[48] visitedPerTimestep ETV
vector 104 TaxiNetwork.node[47] visitedPerTimestep ETV
vector 105 TaxiNetwork.node[49] visitedPerTimestep ETV
vector 106 TaxiNetwork.node[135] visitedPerTimestep ETV
vector 107 TaxiNetwork.node[51] visitedPerTimestep ETV
vector 108 TaxiNetwork.node[56] visitedPerTimestep ETV
vector 109 TaxiNetwork.node[57] visitedPerTimestep ETV
vector 110 TaxiNetwork.node[59] visitedPerTimestep ETV
vector 111 TaxiNetwork.node[141] visitedPerTimestep ETV
vector 112 TaxiNetwork.node[89] visitedPerTimestep ETV
vector 113 TaxiNetwork.node[123] visitedPerTimestep ETV
vector 114 TaxiNetwork.node[129] visitedPerTimestep ETV
vector 115 TaxiNetwork.node[136] visitedPerTimestep ETV
vector 116 TaxiNetwork.node[98] visitedPerTimestep ETV
vector 117 TaxiNetwork.node[50] visitedPerTimestep ETV
vector 118 TaxiNetwork.node[2] visitedPerTimestep ETV
vector 119 TaxiNetwork.node[73] visitedPerTimestep ETV
vector 120 TaxiNetwork.node[28] visitedPerTimestep ETV
vector 121 TaxiNetwork.node[82] visitedPerTimestep ETV
vector 122 TaxiNetwork.node[26] visitedPerTimestep ETV
vector 123 TaxiNetwork.node[132] visitedPerTimestep ETV
vector 124 TaxiNetwork.node[76] visitedPerTimestep ETV
vector 125 TaxiNetwork.node[62] visitedPerTimestep ETV
vector 126 TaxiNetwork.node[65] visitedPerTimestep ETV
vector 127 TaxiNetwork.node[24] visitedPerTimestep ETV
vector 128 TaxiNetwork.node[127] visitedPerTimestep ETV
vector 129 TaxiNetwork.node[125] visitedPerTimestep ETV
vector 130 TaxiNetwork.node[107] visitedPerTimestep ETV
vector 131 TaxiNetwork.node[81] visitedPerTimestep ETV
vector 132 TaxiNetwork.node[71] visitedPerTimestep ETV
vector 133 TaxiNetwork.node[78] visitedPerTimestep ETV
vector 134 TaxiNetwork.node[95] visitedPerTimestep ETV
vector 135 TaxiNetwork.node[96] visitedPerTimestep ETV
0	16478 489 1 10304 0 0 39 1 141 4934 643412
1	16967 543 2 10096 0 0 43 2 141 5489 721957
2	17510 512 3 10272 0 0 41 3 141 5000 643398
3	18022 414 4 10240 0 0 34 4 141 3846 492634
4	18436 443 5 9288 0 0 36 5 138 4298 550558
5	18879 259 7 9768 0 0 21 6 138 2431 311969
6	19138 159 8 8056 0 0 13 7 136 1520 196356
7	19297 160 9 8032 0 0 13 8 136 1563 201889
8	19457 214 10 8072 0 0 17 9 136 2095 272471
9	19671 695 12 10264 0 0 55 10 141 6912 893482
10	20366 781 13 10208 0 0 57 11 141 7249 953379
11	21147 570 14 10080 0 0 42 12 141 5213 671981
12	21717 622 15 9368 0 0 46 13 138 5701 731629
13	22339 587 16 10064 0 0 43 14 141 5393 695669
14	22926 490 17 8744 0 0 36 15 136 4455 579965
15	23416 771 18 10192 0 0 57 16 141 6961 891897
16	24187 654 19 9856 0 0 48 17 138 6130 798734
17	24841 681 20 10280 0 0 50 18 141 6297 815263
18	25522 480 23 9496 0 0 35 19 138 4464 584334
19	26002 611 24 9704 0 0 45 20 138 5623 731241
20	26613 502 25 9600 0 0 37 21 138 4603 598831
21	27115 573 29 10000 0 0 42 22 138 5204 668508
22	27688 590 30 9176 0 0 43 23 138 5529 724415
23	28278 796 31 9984 0 0 58 24 138 7328 954452
24	29074 560 32 10152 0 0 41 25 141 5116 659974
25	29634 427 33 8184 0 0 32 26 136 3735 464377
26	30061 281 34 8680 0 0 21 27 136 2499 314639
27	30342 215 35 6636 0 0 16 28 136 1929 242685
28	30557 637 36 9512 0 0 47 29 138 5828 746084
29	31194 272 38 9448 0 0 20 30 138 2515 326629
30	31466 593 39 10224 0 0 44 31 141 5414 688558
31	32059 673 40 9840 0 0 50 32 138 6133 780651
32	32732 447 41 9968 0 0 33 33 138 4127 527877
33	33179 434 46 9888 0 0 32 34 138 3986 511052
34	33613 530 47 9808 0 0 39 35 138 4863 623361
35	34143 615 51 10288 0 0 45 36 141 5764 750650
36	34758 133 52 4436 0 0 10 37 136 1128 137912
37	34891 215 53 6576 0 0 16 38 136 1942 251438
38	35106 244 54 10320 0 0 18 39 141 2167 279141
39	35350 323 55 10368 0 0 24 40 143 2849 358883
40	35673 200 57 9008 0 0 15 41 137 1771 219631
41	35873 189 58 7720 0 0 14 42 136 1752 227180
42	36062 254 59 9064 0 0 19 43 137 2235 280823
43	36316 311 61 9048 0 0 23 44 137 2824 361688
44	36627 274 62 9040 0 0 20 45 137 2537 331715
45	36901 206 65 9072 0 0 15 46 137 1925 254543
46	37107 309 66 6588 0 0 23 47 136 2772 349602
47	37416 656 67 10120 0 0 48 48 141 6124 796396
48	38072 710 71 10048 0 0 52 49 141 6643 859385
49	38782 175 74 9440 0 0 13 50 138 1575 197545
50	38957 405 76 9904 0 0 30 51 138 3715 468539
51	39362 596 77 9608 0 0 44 52 138 5506 703314
52	39958 719 78 10248 0 0 52 53 141 6795 897619
53	40677 431 80 8360 0 0 32 54 136 3978 509308
54	41108 702 81 9328 0 0 52 55 138 6425 815563
55	41810 216 88 6860 0 0 16 56 136 1985 252155
56	42026 451 91 8080 0 0 33 57 136 4171 538449
57	42477 555 92 9648 0 0 41 58 138 5215 671993
58	43032 651 93 10104 0 0 47 59 141 6111 806437
59	43683 573 94 9624 0 0 42 60 138 5364 692846
60	44256 367 97 9536 0 0 27 61 138 3424 441430
61	44623 412 101 10256 0 0 30 62 141 3838 497744
62	45035 558 102 9320 0 0 41 63 138 5225 674261
63	45593 573 103 10184 0 0 42 64 141 5356 689942
64	46166 532 106 9976 0 0 39 65 138 5033 654685
65	46698 95 111 6224 0 0 7 66 136 862 110184
66	46793 136 113 6568 0 0 10 67 136 1252 160692
67	46929 163 114 6572 0 0 12 68 136 1519 196509
68	47092 94 115 6232 0 0 7 69 136 857 108479
69	47186 176 116 8976 0 0 13 70 137 1655 214651
70	47362 333 117 10392 0 0 24 71 145 3146 417000
71	47695 261 118 8984 0 0 19 72 137 2451 320311
72	47956 494 128 9672 0 0 36 73 138 4673 611513
73	48450 163 143 3120 0 0 12 74 135 1506 192400
74	48613 207 144 9640 0 0 15 75 138 1926 250878
75	48820 259 147 8688 0 0 19 76 136 2434 315504
76	49079 83 148 10016 0 0 6 77 139 750 96568
77	49162 244 153 8520 0 0 18 78 136 2234 281574
78	49406 178 154 8704 0 0 13 79 136 1627 207179
79	49584 561 157 9664 0 0 41 80 138 5298 689386
80	50145 473 158 8136 0 0 35 81 136 4396 558410
81	50618 122 163 9800 0 0 9 82 138 1119 141891
82	50740 286 166 10344 0 0 21 83 141 2649 339609
83	51026 151 169 9120 0 0 11 84 138 1408 182596
84	51177 216 171 8992 0 0 16 85 137 2030 260144
85	51393 246 173 9096 0 0 18 86 138 2316 300734
86	51639 40 176 9112 0 0 3 87 138 354 43254
87	51679 275 177 6996 0 0 20 88 136 2595 339385
88	51954 137 178 10336 0 0 10 89 141 1273 164317
89	52091 94 179 4340 0 0 7 90 136 862 107712
90	52185 244 180 9416 0 0 18 91 138 2260 286658
91	52429 162 182 9896 0 0 12 92 138 1499 189379
92	52591 754 185 10144 0 0 55 93 141 7027 905723
93	53345 652 198 10088 0 0 47 94 141 6160 811938
94	53997 188 199 7880 0 0 14 95 136 1742 218780
95	54185 343 200 8800 0 0 25 96 136 3230 419586
96	54528 354 207 9880 0 0 26 97 138 3328 429060
97	54882 509 210 9960 0 0 37 98 138 4808 627892
98	55391 343 220 9232 0 0 25 99 138 3192 410828
99	55734 532 226 10136 0 0 39 100 141 5050 656710
100	56266 516 246 8896 0 0 35 101 136 4554 595188
101	56782 534 255 10200 0 0 36 102 141 4741 626227
102	57316 87 263 4004 0 0 6 103 136 731 90071
103	57403 72 264 4000 0 0 5 104 136 587 69901
104	57475 43 265 2012 0 0 3 105 133 355 42403
105	57518 102 266 4012 0 0 7 106 136 877 110751
106	57620 43 268 4016 0 0 3 107 136 359 43401
107	57663 73 269 4008 0 0 5 108 136 629 79801
108	57736 234 284 8712 0 0 16 109 136 2033 259841
109	57970 236 291 9792 0 0 16 110 138 2070 269522
110	58206 59 306 9408 0 0 4 111 138 514 66502
111	58265 690 324 9696 0 0 47 112 138 6130 801948
112	58955 661 341 9720 0 0 45 113 138 5852 763232
113	59616 415 410 9168 0 0 28 114 138 3705 491013
114	60031 298 436 10384 0 0 20 115 144 2641 349749
115	60329 58 477 4020 0 0 4 116 136 504 63904
116	60387 59 483 4524 0 0 4 117 136 522 68370
117	60446 29 486 3988 0 0 2 118 136 254 32420
118	60475 616 503 10296 0 0 42 119 141 5485 717513
119	61091 162 509 6212 0 0 11 120 136 1455 192749
120	61253 103 563 8040 0 0 7 121 136 913 119317
121	61356 387 615 10024 0 0 26 122 140 3475 464979
122	61743 164 695 8064 0 0 11 123 136 1461 194223
123	61907 241 728 10360 0 0 16 124 142 2144 287620
124	62148 134 740 6988 0 0 9 125 136 1210 162780
125	62282 389 741 9000 0 0 26 126 137 3491 468937
126	62671 89 748 6252 0 0 6 127 136 803 107527
127	62760 89 880 3336 0 0 6 128 135 793 104853
128	62849 30 2670 2704 0 0 2 134 134 268 35912
129	62879 90 2672 2698 0 0 6 134 134 804 107736
130	62969 75 2674 2702 0 0 5 134 134 670 89780
131	63044 75 2676 2700 0 0 5 134 134 670 89780
132	63119 45 2720 3792 0 0 3 135 135 405 54675
133	63164 90 2748 4776 0 0 6 135 136 814 110434
134	63254 15 3788 3788 0 0 1 135 135 135 18225
135	63269 15 3828 3828 0 0 1 136 136 136 18496

