version 3
run General-399-20250917-22:37:10-66621
attr configname General
attr datetime 20250917-22:37:10
attr datetimef 20250917-223710
attr experiment General
attr inifile omnetpp.ini
attr iterationvars ""
attr iterationvarsd ""
attr iterationvarsf ""
attr measurement ""
attr network RGG
attr processid 66621
attr repetition 399
attr replication #399
attr resultdir results
attr runnumber 399
attr seedset 399
config network RGG
config seed-set 399
config num-rngs 1
config sim-time-limit 10s
config repeat 500
config **.node[*].xCor "uniform(0.0, 1.0, 0)"
config **.node[*].yCor "uniform(0.0, 1.0, 0)"
config *.numWalkers 1
config *.numNodes 100
config *.enableDuplication true
config *.rc 0.25

par RGG.node[0].port$o[0].channel typename "\"ned.IdealChannel\""
par RGG.node[13].port$o[0].channel typename "\"ned.IdealChannel\""
par RGG.node[0].port$o[1].channel typename "\"ned.IdealChannel\""
par RGG.node[22].port$o[0].channel typename "\"ned.IdealChannel\""
par RGG.node[0].port$o[2].channel typename "\"ned.IdealChannel\""
par RGG.node[25].port$o[0].channel typename "\"ned.IdealChannel\""
par RGG.node[0].port$o[3].channel typename "\"ned.IdealChannel\""
par RGG.node[31].port$o[0].channel typename "\"ned.IdealChannel\""
par RGG.node[0].port$o[4].channel typename "\"ned.IdealChannel\""
par RGG.node[35].port$o[0].channel typename "\"ned.IdealChannel\""
par RGG.node[0].port$o[5].channel typename "\"ned.IdealChannel\""
par RGG.node[59].port$o[0].channel typename "\"ned.IdealChannel\""
par RGG.node[0].port$o[6].channel typename "\"ned.IdealChannel\""
par RGG.node[65].port$o[0].channel typename "\"ned.IdealChannel\""
par RGG.node[0].port$o[7].channel typename "\"ned.IdealChannel\""
par RGG.node[68].port$o[0].channel typename "\"ned.IdealChannel\""
par RGG.node[0].port$o[8].channel typename "\"ned.IdealChannel\""
par RGG.node[71].port$o[0].channel typename "\"ned.IdealChannel\""
par RGG.node[0].port$o[9].channel typename "\"ned.IdealChannel\""
par RGG.node[77].port$o[0].channel typename "\"ned.IdealChannel\""
par RGG.node[0].port$o[10].channel typename "\"ned.IdealChannel\""
par RGG.node[89].port$o[0].channel typename "\"ned.IdealChannel\""
par RGG.node[0].port$o[11].channel typename "\"ned.IdealChannel\""
par RGG.node[91].port$o[0].channel typename "\"ned.IdealChannel\""
par RGG.node[1].port$o[0].channel typename "\"ned.IdealChannel\""
par RGG.node[14].port$o[0].channel typename "\"ned.IdealChannel\""
par RGG.node[1].port$o[1].channel typename "\"ned.IdealChannel\""
par RGG.node[17].port$o[0].channel typename "\"ned.IdealChannel\""
par RGG.node[1].port$o[2].channel typename "\"ned.IdealChannel\""
par RGG.node[25].port$o[1].channel typename "\"ned.IdealChannel\""
par RGG.node[1].port$o[3].channel typename "\"ned.IdealChannel\""
par RGG.node[27].port$o[0].channel typename "\"ned.IdealChannel\""
par RGG.node[1].port$o[4].channel typename "\"ned.IdealChannel\""
par RGG.node[28].port$o[0].channel typename "\"ned.IdealChannel\""
par RGG.node[1].port$o[5].channel typename "\"ned.IdealChannel\""
par RGG.node[29].port$o[0].channel typename "\"ned.IdealChannel\""
par RGG.node[1].port$o[6].channel typename "\"ned.IdealChannel\""
par RGG.node[35].port$o[1].channel typename "\"ned.IdealChannel\""
par RGG.node[1].port$o[7].channel typename "\"ned.IdealChannel\""
par RGG.node[37].port$o[0].channel typename "\"ned.IdealChannel\""
par RGG.node[1].port$o[8].channel typename "\"ned.IdealChannel\""
par RGG.node[49].port$o[0].channel typename "\"ned.IdealChannel\""
par RGG.node[1].port$o[9].channel typename "\"ned.IdealChannel\""
par RGG.node[50].port$o[0].channel typename "\"ned.IdealChannel\""
par RGG.node[1].port$o[10].channel typename "\"ned.IdealChannel\""
par RGG.node[55].port$o[0].channel typename "\"ned.IdealChannel\""
par RGG.node[1].port$o[11].channel typename "\"ned.IdealChannel\""
par RGG.node[59].port$o[1].channel typename "\"ned.IdealChannel\""
par RGG.node[1].port$o[12].channel typename "\"ned.IdealChannel\""
par RGG.node[66].port$o[0].channel typename "\"ned.IdealChannel\""
par RGG.node[1].port$o[13].channel typename "\"ned.IdealChannel\""
par RGG.node[74].port$o[0].channel typename "\"ned.IdealChannel\""
par RGG.node[1].port$o[14].channel typename "\"ned.IdealChannel\""
par RGG.node[76].port$o[0].channel typename "\"ned.IdealChannel\""
par RGG.node[1].port$o[15].channel typename "\"ned.IdealChannel\""
par RGG.node[95].port$o[0].channel typename "\"ned.IdealChannel\""
par RGG.node[1].port$o[16].channel typename "\"ned.IdealChannel\""
par RGG.node[97].port$o[0].channel typename "\"ned.IdealChannel\""
par RGG.node[2].port$o[0].channel typename "\"ned.IdealChannel\""
par RGG.node[3].port$o[0].channel typename "\"ned.IdealChannel\""
par RGG.node[2].port$o[1].channel typename "\"ned.IdealChannel\""
par RGG.node[8].port$o[0].channel typename "\"ned.IdealChannel\""
par RGG.node[2].port$o[2].channel typename "\"ned.IdealChannel\""
par RGG.node[11].port$o[0].channel typename "\"ned.IdealChannel\""
par RGG.node[2].port$o[3].channel typename "\"ned.IdealChannel\""
par RGG.node[36].port$o[0].channel typename "\"ned.IdealChannel\""
par RGG.node[2].port$o[4].channel typename "\"ned.IdealChannel\""
par RGG.node[39].port$o[0].channel typename "\"ned.IdealChannel\""
par RGG.node[2].port$o[5].channel typename "\"ned.IdealChannel\""
par RGG.node[41].port$o[0].channel typename "\"ned.IdealChannel\""
par RGG.node[2].port$o[6].channel typename "\"ned.IdealChannel\""
par RGG.node[51].port$o[0].channel typename "\"ned.IdealChannel\""
par RGG.node[2].port$o[7].channel typename "\"ned.IdealChannel\""
par RGG.node[54].port$o[0].channel typename "\"ned.IdealChannel\""
par RGG.node[2].port$o[8].channel typename "\"ned.IdealChannel\""
par RGG.node[60].port$o[0].channel typename "\"ned.IdealChannel\""
par RGG.node[2].port$o[9].channel typename "\"ned.IdealChannel\""
par RGG.node[61].port$o[0].channel typename "\"ned.IdealChannel\""
par RGG.node[2].port$o[10].channel typename "\"ned.IdealChannel\""
par RGG.node[64].port$o[0].channel typename "\"ned.IdealChannel\""
par RGG.node[2].port$o[11].channel typename "\"ned.IdealChannel\""
par RGG.node[70].port$o[0].channel typename "\"ned.IdealChannel\""
par RGG.node[2].port$o[12].channel typename "\"ned.IdealChannel\""
par RGG.node[73].port$o[0].channel typename "\"ned.IdealChannel\""
par RGG.node[2].port$o[13].channel typename "\"ned.IdealChannel\""
par RGG.node[87].port$o[0].channel typename "\"ned.IdealChannel\""
par RGG.node[2].port$o[14].channel typename "\"ned.IdealChannel\""
par RGG.node[93].port$o[0].channel typename "\"ned.IdealChannel\""
par RGG.node[2].port$o[15].channel typename "\"ned.IdealChannel\""
par RGG.node[98].port$o[0].channel typename "\"ned.IdealChannel\""
par RGG.node[3].port$o[1].channel typename "\"ned.IdealChannel\""
par RGG.node[8].port$o[1].channel typename "\"ned.IdealChannel\""
par RGG.node[3].port$o[2].channel typename "\"ned.IdealChannel\""
par RGG.node[11].port$o[1].channel typename "\"ned.IdealChannel\""
par RGG.node[3].port$o[3].channel typename "\"ned.IdealChannel\""
par RGG.node[39].port$o[1].channel typename "\"ned.IdealChannel\""
par RGG.node[3].port$o[4].channel typename "\"ned.IdealChannel\""
par RGG.node[41].port$o[1].channel typename "\"ned.IdealChannel\""
par RGG.node[3].port$o[5].channel typename "\"ned.IdealChannel\""
par RGG.node[51].port$o[1].channel typename "\"ned.IdealChannel\""
par RGG.node[3].port$o[6].channel typename "\"ned.IdealChannel\""
par RGG.node[54].port$o[1].channel typename "\"ned.IdealChannel\""
par RGG.node[3].port$o[7].channel typename "\"ned.IdealChannel\""
par RGG.node[60].port$o[1].channel typename "\"ned.IdealChannel\""
par RGG.node[3].port$o[8].channel typename "\"ned.IdealChannel\""
par RGG.node[61].port$o[1].channel typename "\"ned.IdealChannel\""
par RGG.node[3].port$o[9].channel typename "\"ned.IdealChannel\""
par RGG.node[64].port$o[1].channel typename "\"ned.IdealChannel\""
par RGG.node[3].port$o[10].channel typename "\"ned.IdealChannel\""
par RGG.node[70].port$o[1].channel typename "\"ned.IdealChannel\""
par RGG.node[3].port$o[11].channel typename "\"ned.IdealChannel\""
par RGG.node[73].port$o[1].channel typename "\"ned.IdealChannel\""
par RGG.node[3].port$o[12].channel typename "\"ned.IdealChannel\""
par RGG.node[82].port$o[0].channel typename "\"ned.IdealChannel\""
par RGG.node[3].port$o[13].channel typename "\"ned.IdealChannel\""
par RGG.node[87].port$o[1].channel typename "\"ned.IdealChannel\""
par RGG.node[3].port$o[14].channel typename "\"ned.IdealChannel\""
par RGG.node[93].port$o[1].channel typename "\"ned.IdealChannel\""
par RGG.node[3].port$o[15].channel typename "\"ned.IdealChannel\""
par RGG.node[98].port$o[1].channel typename "\"ned.IdealChannel\""
par RGG.node[4].port$o[0].channel typename "\"ned.IdealChannel\""
par RGG.node[9].port$o[0].channel typename "\"ned.IdealChannel\""
par RGG.node[4].port$o[1].channel typename "\"ned.IdealChannel\""
par RGG.node[16].port$o[0].channel typename "\"ned.IdealChannel\""
par RGG.node[4].port$o[2].channel typename "\"ned.IdealChannel\""
par RGG.node[26].port$o[0].channel typename "\"ned.IdealChannel\""
par RGG.node[4].port$o[3].channel typename "\"ned.IdealChannel\""
par RGG.node[47].port$o[0].channel typename "\"ned.IdealChannel\""
par RGG.node[4].port$o[4].channel typename "\"ned.IdealChannel\""
par RGG.node[56].port$o[0].channel typename "\"ned.IdealChannel\""
par RGG.node[4].port$o[5].channel typename "\"ned.IdealChannel\""
par RGG.node[72].port$o[0].channel typename "\"ned.IdealChannel\""
par RGG.node[4].port$o[6].channel typename "\"ned.IdealChannel\""
par RGG.node[79].port$o[0].channel typename "\"ned.IdealChannel\""
par RGG.node[4].port$o[7].channel typename "\"ned.IdealChannel\""
par RGG.node[81].port$o[0].channel typename "\"ned.IdealChannel\""
par RGG.node[4].port$o[8].channel typename "\"ned.IdealChannel\""
par RGG.node[83].port$o[0].channel typename "\"ned.IdealChannel\""
par RGG.node[4].port$o[9].channel typename "\"ned.IdealChannel\""
par RGG.node[92].port$o[0].channel typename "\"ned.IdealChannel\""
par RGG.node[5].port$o[0].channel typename "\"ned.IdealChannel\""
par RGG.node[7].port$o[0].channel typename "\"ned.IdealChannel\""
par RGG.node[5].port$o[1].channel typename "\"ned.IdealChannel\""
par RGG.node[12].port$o[0].channel typename "\"ned.IdealChannel\""
par RGG.node[5].port$o[2].channel typename "\"ned.IdealChannel\""
par RGG.node[18].port$o[0].channel typename "\"ned.IdealChannel\""
par RGG.node[5].port$o[3].channel typename "\"ned.IdealChannel\""
par RGG.node[19].port$o[0].channel typename "\"ned.IdealChannel\""
par RGG.node[5].port$o[4].channel typename "\"ned.IdealChannel\""
par RGG.node[24].port$o[0].channel typename "\"ned.IdealChannel\""
par RGG.node[5].port$o[5].channel typename "\"ned.IdealChannel\""
par RGG.node[32].port$o[0].channel typename "\"ned.IdealChannel\""
par RGG.node[5].port$o[6].channel typename "\"ned.IdealChannel\""
par RGG.node[45].port$o[0].channel typename "\"ned.IdealChannel\""
par RGG.node[5].port$o[7].channel typename "\"ned.IdealChannel\""
par RGG.node[53].port$o[0].channel typename "\"ned.IdealChannel\""
par RGG.node[5].port$o[8].channel typename "\"ned.IdealChannel\""
par RGG.node[57].port$o[0].channel typename "\"ned.IdealChannel\""
par RGG.node[5].port$o[9].channel typename "\"ned.IdealChannel\""
par RGG.node[75].port$o[0].channel typename "\"ned.IdealChannel\""
par RGG.node[5].port$o[10].channel typename "\"ned.IdealChannel\""
par RGG.node[80].port$o[0].channel typename "\"ned.IdealChannel\""
par RGG.node[5].port$o[11].channel typename "\"ned.IdealChannel\""
par RGG.node[85].port$o[0].channel typename "\"ned.IdealChannel\""
par RGG.node[6].port$o[0].channel typename "\"ned.IdealChannel\""
par RGG.node[14].port$o[1].channel typename "\"ned.IdealChannel\""
par RGG.node[6].port$o[1].channel typename "\"ned.IdealChannel\""
par RGG.node[15].port$o[0].channel typename "\"ned.IdealChannel\""
par RGG.node[6].port$o[2].channel typename "\"ned.IdealChannel\""
par RGG.node[21].port$o[0].channel typename "\"ned.IdealChannel\""
par RGG.node[6].port$o[3].channel typename "\"ned.IdealChannel\""
par RGG.node[23].port$o[0].channel typename "\"ned.IdealChannel\""
par RGG.node[6].port$o[4].channel typename "\"ned.IdealChannel\""
par RGG.node[30].port$o[0].channel typename "\"ned.IdealChannel\""
par RGG.node[6].port$o[5].channel typename "\"ned.IdealChannel\""
par RGG.node[37].port$o[1].channel typename "\"ned.IdealChannel\""
par RGG.node[6].port$o[6].channel typename "\"ned.IdealChannel\""
par RGG.node[44].port$o[0].channel typename "\"ned.IdealChannel\""
par RGG.node[6].port$o[7].channel typename "\"ned.IdealChannel\""
par RGG.node[49].port$o[1].channel typename "\"ned.IdealChannel\""
par RGG.node[6].port$o[8].channel typename "\"ned.IdealChannel\""
par RGG.node[66].port$o[1].channel typename "\"ned.IdealChannel\""
par RGG.node[6].port$o[9].channel typename "\"ned.IdealChannel\""
par RGG.node[74].port$o[1].channel typename "\"ned.IdealChannel\""
par RGG.node[6].port$o[10].channel typename "\"ned.IdealChannel\""
par RGG.node[76].port$o[1].channel typename "\"ned.IdealChannel\""
par RGG.node[6].port$o[11].channel typename "\"ned.IdealChannel\""
par RGG.node[84].port$o[0].channel typename "\"ned.IdealChannel\""
par RGG.node[6].port$o[12].channel typename "\"ned.IdealChannel\""
par RGG.node[86].port$o[0].channel typename "\"ned.IdealChannel\""
par RGG.node[6].port$o[13].channel typename "\"ned.IdealChannel\""
par RGG.node[94].port$o[0].channel typename "\"ned.IdealChannel\""
par RGG.node[6].port$o[14].channel typename "\"ned.IdealChannel\""
par RGG.node[95].port$o[1].channel typename "\"ned.IdealChannel\""
par RGG.node[6].port$o[15].channel typename "\"ned.IdealChannel\""
par RGG.node[97].port$o[1].channel typename "\"ned.IdealChannel\""
par RGG.node[7].port$o[1].channel typename "\"ned.IdealChannel\""
par RGG.node[12].port$o[1].channel typename "\"ned.IdealChannel\""
par RGG.node[7].port$o[2].channel typename "\"ned.IdealChannel\""
par RGG.node[18].port$o[1].channel typename "\"ned.IdealChannel\""
par RGG.node[7].port$o[3].channel typename "\"ned.IdealChannel\""
par RGG.node[19].port$o[1].channel typename "\"ned.IdealChannel\""
par RGG.node[7].port$o[4].channel typename "\"ned.IdealChannel\""
par RGG.node[24].port$o[1].channel typename "\"ned.IdealChannel\""
par RGG.node[7].port$o[5].channel typename "\"ned.IdealChannel\""
par RGG.node[32].port$o[1].channel typename "\"ned.IdealChannel\""
par RGG.node[7].port$o[6].channel typename "\"ned.IdealChannel\""
par RGG.node[38].port$o[0].channel typename "\"ned.IdealChannel\""
par RGG.node[7].port$o[7].channel typename "\"ned.IdealChannel\""
par RGG.node[45].port$o[1].channel typename "\"ned.IdealChannel\""
par RGG.node[7].port$o[8].channel typename "\"ned.IdealChannel\""
par RGG.node[46].port$o[0].channel typename "\"ned.IdealChannel\""
par RGG.node[7].port$o[9].channel typename "\"ned.IdealChannel\""
par RGG.node[53].port$o[1].channel typename "\"ned.IdealChannel\""
par RGG.node[7].port$o[10].channel typename "\"ned.IdealChannel\""
par RGG.node[57].port$o[1].channel typename "\"ned.IdealChannel\""
par RGG.node[7].port$o[11].channel typename "\"ned.IdealChannel\""
par RGG.node[75].port$o[1].channel typename "\"ned.IdealChannel\""
par RGG.node[7].port$o[12].channel typename "\"ned.IdealChannel\""
par RGG.node[80].port$o[1].channel typename "\"ned.IdealChannel\""
par RGG.node[7].port$o[13].channel typename "\"ned.IdealChannel\""
par RGG.node[85].port$o[1].channel typename "\"ned.IdealChannel\""
par RGG.node[8].port$o[2].channel typename "\"ned.IdealChannel\""
par RGG.node[11].port$o[2].channel typename "\"ned.IdealChannel\""
par RGG.node[8].port$o[3].channel typename "\"ned.IdealChannel\""
par RGG.node[39].port$o[2].channel typename "\"ned.IdealChannel\""
par RGG.node[8].port$o[4].channel typename "\"ned.IdealChannel\""
par RGG.node[41].port$o[2].channel typename "\"ned.IdealChannel\""
par RGG.node[8].port$o[5].channel typename "\"ned.IdealChannel\""
par RGG.node[51].port$o[2].channel typename "\"ned.IdealChannel\""
par RGG.node[8].port$o[6].channel typename "\"ned.IdealChannel\""
par RGG.node[54].port$o[2].channel typename "\"ned.IdealChannel\""
par RGG.node[8].port$o[7].channel typename "\"ned.IdealChannel\""
par RGG.node[60].port$o[2].channel typename "\"ned.IdealChannel\""
par RGG.node[8].port$o[8].channel typename "\"ned.IdealChannel\""
par RGG.node[61].port$o[2].channel typename "\"ned.IdealChannel\""
par RGG.node[8].port$o[9].channel typename "\"ned.IdealChannel\""
par RGG.node[62].port$o[0].channel typename "\"ned.IdealChannel\""
par RGG.node[8].port$o[10].channel typename "\"ned.IdealChannel\""
par RGG.node[64].port$o[2].channel typename "\"ned.IdealChannel\""
par RGG.node[8].port$o[11].channel typename "\"ned.IdealChannel\""
par RGG.node[70].port$o[2].channel typename "\"ned.IdealChannel\""
par RGG.node[8].port$o[12].channel typename "\"ned.IdealChannel\""
par RGG.node[73].port$o[2].channel typename "\"ned.IdealChannel\""
par RGG.node[8].port$o[13].channel typename "\"ned.IdealChannel\""
par RGG.node[82].port$o[1].channel typename "\"ned.IdealChannel\""
par RGG.node[8].port$o[14].channel typename "\"ned.IdealChannel\""
par RGG.node[87].port$o[2].channel typename "\"ned.IdealChannel\""
par RGG.node[8].port$o[15].channel typename "\"ned.IdealChannel\""
par RGG.node[93].port$o[2].channel typename "\"ned.IdealChannel\""
par RGG.node[8].port$o[16].channel typename "\"ned.IdealChannel\""
par RGG.node[96].port$o[0].channel typename "\"ned.IdealChannel\""
par RGG.node[8].port$o[17].channel typename "\"ned.IdealChannel\""
par RGG.node[98].port$o[2].channel typename "\"ned.IdealChannel\""
par RGG.node[9].port$o[1].channel typename "\"ned.IdealChannel\""
par RGG.node[22].port$o[1].channel typename "\"ned.IdealChannel\""
par RGG.node[9].port$o[2].channel typename "\"ned.IdealChannel\""
par RGG.node[47].port$o[1].channel typename "\"ned.IdealChannel\""
par RGG.node[9].port$o[3].channel typename "\"ned.IdealChannel\""
par RGG.node[72].port$o[1].channel typename "\"ned.IdealChannel\""
par RGG.node[9].port$o[4].channel typename "\"ned.IdealChannel\""
par RGG.node[79].port$o[1].channel typename "\"ned.IdealChannel\""
par RGG.node[9].port$o[5].channel typename "\"ned.IdealChannel\""
par RGG.node[81].port$o[1].channel typename "\"ned.IdealChannel\""
par RGG.node[9].port$o[6].channel typename "\"ned.IdealChannel\""
par RGG.node[83].port$o[1].channel typename "\"ned.IdealChannel\""
par RGG.node[9].port$o[7].channel typename "\"ned.IdealChannel\""
par RGG.node[92].port$o[1].channel typename "\"ned.IdealChannel\""
par RGG.node[10].port$o[0].channel typename "\"ned.IdealChannel\""
par RGG.node[44].port$o[1].channel typename "\"ned.IdealChannel\""
par RGG.node[10].port$o[1].channel typename "\"ned.IdealChannel\""
par RGG.node[50].port$o[1].channel typename "\"ned.IdealChannel\""
par RGG.node[11].port$o[3].channel typename "\"ned.IdealChannel\""
par RGG.node[33].port$o[0].channel typename "\"ned.IdealChannel\""
par RGG.node[11].port$o[4].channel typename "\"ned.IdealChannel\""
par RGG.node[36].port$o[1].channel typename "\"ned.IdealChannel\""
par RGG.node[11].port$o[5].channel typename "\"ned.IdealChannel\""
par RGG.node[39].port$o[3].channel typename "\"ned.IdealChannel\""
par RGG.node[11].port$o[6].channel typename "\"ned.IdealChannel\""
par RGG.node[48].port$o[0].channel typename "\"ned.IdealChannel\""
par RGG.node[11].port$o[7].channel typename "\"ned.IdealChannel\""
par RGG.node[51].port$o[3].channel typename "\"ned.IdealChannel\""
par RGG.node[11].port$o[8].channel typename "\"ned.IdealChannel\""
par RGG.node[54].port$o[3].channel typename "\"ned.IdealChannel\""
par RGG.node[11].port$o[9].channel typename "\"ned.IdealChannel\""
par RGG.node[56].port$o[1].channel typename "\"ned.IdealChannel\""
par RGG.node[11].port$o[10].channel typename "\"ned.IdealChannel\""
par RGG.node[60].port$o[3].channel typename "\"ned.IdealChannel\""
par RGG.node[11].port$o[11].channel typename "\"ned.IdealChannel\""
par RGG.node[61].port$o[3].channel typename "\"ned.IdealChannel\""
par RGG.node[11].port$o[12].channel typename "\"ned.IdealChannel\""
par RGG.node[64].port$o[3].channel typename "\"ned.IdealChannel\""
par RGG.node[11].port$o[13].channel typename "\"ned.IdealChannel\""
par RGG.node[67].port$o[0].channel typename "\"ned.IdealChannel\""
par RGG.node[11].port$o[14].channel typename "\"ned.IdealChannel\""
par RGG.node[70].port$o[3].channel typename "\"ned.IdealChannel\""
par RGG.node[11].port$o[15].channel typename "\"ned.IdealChannel\""
par RGG.node[73].port$o[3].channel typename "\"ned.IdealChannel\""
par RGG.node[11].port$o[16].channel typename "\"ned.IdealChannel\""
par RGG.node[82].port$o[2].channel typename "\"ned.IdealChannel\""
par RGG.node[11].port$o[17].channel typename "\"ned.IdealChannel\""
par RGG.node[87].port$o[3].channel typename "\"ned.IdealChannel\""
par RGG.node[11].port$o[18].channel typename "\"ned.IdealChannel\""
par RGG.node[88].port$o[0].channel typename "\"ned.IdealChannel\""
par RGG.node[11].port$o[19].channel typename "\"ned.IdealChannel\""
par RGG.node[93].port$o[3].channel typename "\"ned.IdealChannel\""
par RGG.node[11].port$o[20].channel typename "\"ned.IdealChannel\""
par RGG.node[98].port$o[3].channel typename "\"ned.IdealChannel\""
par RGG.node[12].port$o[2].channel typename "\"ned.IdealChannel\""
par RGG.node[18].port$o[2].channel typename "\"ned.IdealChannel\""
par RGG.node[12].port$o[3].channel typename "\"ned.IdealChannel\""
par RGG.node[19].port$o[2].channel typename "\"ned.IdealChannel\""
par RGG.node[12].port$o[4].channel typename "\"ned.IdealChannel\""
par RGG.node[32].port$o[2].channel typename "\"ned.IdealChannel\""
par RGG.node[12].port$o[5].channel typename "\"ned.IdealChannel\""
par RGG.node[45].port$o[2].channel typename "\"ned.IdealChannel\""
par RGG.node[12].port$o[6].channel typename "\"ned.IdealChannel\""
par RGG.node[53].port$o[2].channel typename "\"ned.IdealChannel\""
par RGG.node[12].port$o[7].channel typename "\"ned.IdealChannel\""
par RGG.node[57].port$o[2].channel typename "\"ned.IdealChannel\""
par RGG.node[12].port$o[8].channel typename "\"ned.IdealChannel\""
par RGG.node[75].port$o[2].channel typename "\"ned.IdealChannel\""
par RGG.node[12].port$o[9].channel typename "\"ned.IdealChannel\""
par RGG.node[80].port$o[2].channel typename "\"ned.IdealChannel\""
par RGG.node[13].port$o[1].channel typename "\"ned.IdealChannel\""
par RGG.node[22].port$o[2].channel typename "\"ned.IdealChannel\""
par RGG.node[13].port$o[2].channel typename "\"ned.IdealChannel\""
par RGG.node[25].port$o[2].channel typename "\"ned.IdealChannel\""
par RGG.node[13].port$o[3].channel typename "\"ned.IdealChannel\""
par RGG.node[29].port$o[1].channel typename "\"ned.IdealChannel\""
par RGG.node[13].port$o[4].channel typename "\"ned.IdealChannel\""
par RGG.node[31].port$o[1].channel typename "\"ned.IdealChannel\""
par RGG.node[13].port$o[5].channel typename "\"ned.IdealChannel\""
par RGG.node[35].port$o[2].channel typename "\"ned.IdealChannel\""
par RGG.node[13].port$o[6].channel typename "\"ned.IdealChannel\""
par RGG.node[59].port$o[2].channel typename "\"ned.IdealChannel\""
par RGG.node[13].port$o[7].channel typename "\"ned.IdealChannel\""
par RGG.node[65].port$o[1].channel typename "\"ned.IdealChannel\""
par RGG.node[13].port$o[8].channel typename "\"ned.IdealChannel\""
par RGG.node[68].port$o[1].channel typename "\"ned.IdealChannel\""
par RGG.node[13].port$o[9].channel typename "\"ned.IdealChannel\""
par RGG.node[71].port$o[1].channel typename "\"ned.IdealChannel\""
par RGG.node[13].port$o[10].channel typename "\"ned.IdealChannel\""
par RGG.node[77].port$o[1].channel typename "\"ned.IdealChannel\""
par RGG.node[13].port$o[11].channel typename "\"ned.IdealChannel\""
par RGG.node[89].port$o[1].channel typename "\"ned.IdealChannel\""
par RGG.node[13].port$o[12].channel typename "\"ned.IdealChannel\""
par RGG.node[91].port$o[1].channel typename "\"ned.IdealChannel\""
par RGG.node[14].port$o[2].channel typename "\"ned.IdealChannel\""
par RGG.node[15].port$o[1].channel typename "\"ned.IdealChannel\""
par RGG.node[14].port$o[3].channel typename "\"ned.IdealChannel\""
par RGG.node[21].port$o[1].channel typename "\"ned.IdealChannel\""
par RGG.node[14].port$o[4].channel typename "\"ned.IdealChannel\""
par RGG.node[23].port$o[1].channel typename "\"ned.IdealChannel\""
par RGG.node[14].port$o[5].channel typename "\"ned.IdealChannel\""
par RGG.node[27].port$o[1].channel typename "\"ned.IdealChannel\""
par RGG.node[14].port$o[6].channel typename "\"ned.IdealChannel\""
par RGG.node[28].port$o[1].channel typename "\"ned.IdealChannel\""
par RGG.node[14].port$o[7].channel typename "\"ned.IdealChannel\""
par RGG.node[30].port$o[1].channel typename "\"ned.IdealChannel\""
par RGG.node[14].port$o[8].channel typename "\"ned.IdealChannel\""
par RGG.node[37].port$o[2].channel typename "\"ned.IdealChannel\""
par RGG.node[14].port$o[9].channel typename "\"ned.IdealChannel\""
par RGG.node[40].port$o[0].channel typename "\"ned.IdealChannel\""
par RGG.node[14].port$o[10].channel typename "\"ned.IdealChannel\""
par RGG.node[44].port$o[2].channel typename "\"ned.IdealChannel\""
par RGG.node[14].port$o[11].channel typename "\"ned.IdealChannel\""
par RGG.node[49].port$o[2].channel typename "\"ned.IdealChannel\""
par RGG.node[14].port$o[12].channel typename "\"ned.IdealChannel\""
par RGG.node[55].port$o[1].channel typename "\"ned.IdealChannel\""
par RGG.node[14].port$o[13].channel typename "\"ned.IdealChannel\""
par RGG.node[66].port$o[2].channel typename "\"ned.IdealChannel\""
par RGG.node[14].port$o[14].channel typename "\"ned.IdealChannel\""
par RGG.node[74].port$o[2].channel typename "\"ned.IdealChannel\""
par RGG.node[14].port$o[15].channel typename "\"ned.IdealChannel\""
par RGG.node[76].port$o[2].channel typename "\"ned.IdealChannel\""
par RGG.node[14].port$o[16].channel typename "\"ned.IdealChannel\""
par RGG.node[84].port$o[1].channel typename "\"ned.IdealChannel\""
par RGG.node[14].port$o[17].channel typename "\"ned.IdealChannel\""
par RGG.node[86].port$o[1].channel typename "\"ned.IdealChannel\""
par RGG.node[14].port$o[18].channel typename "\"ned.IdealChannel\""
par RGG.node[94].port$o[1].channel typename "\"ned.IdealChannel\""
par RGG.node[14].port$o[19].channel typename "\"ned.IdealChannel\""
par RGG.node[95].port$o[2].channel typename "\"ned.IdealChannel\""
par RGG.node[14].port$o[20].channel typename "\"ned.IdealChannel\""
par RGG.node[97].port$o[2].channel typename "\"ned.IdealChannel\""
par RGG.node[15].port$o[2].channel typename "\"ned.IdealChannel\""
par RGG.node[21].port$o[2].channel typename "\"ned.IdealChannel\""
par RGG.node[15].port$o[3].channel typename "\"ned.IdealChannel\""
par RGG.node[23].port$o[2].channel typename "\"ned.IdealChannel\""
par RGG.node[15].port$o[4].channel typename "\"ned.IdealChannel\""
par RGG.node[30].port$o[2].channel typename "\"ned.IdealChannel\""
par RGG.node[15].port$o[5].channel typename "\"ned.IdealChannel\""
par RGG.node[37].port$o[3].channel typename "\"ned.IdealChannel\""
par RGG.node[15].port$o[6].channel typename "\"ned.IdealChannel\""
par RGG.node[40].port$o[1].channel typename "\"ned.IdealChannel\""
par RGG.node[15].port$o[7].channel typename "\"ned.IdealChannel\""
par RGG.node[49].port$o[3].channel typename "\"ned.IdealChannel\""
par RGG.node[15].port$o[8].channel typename "\"ned.IdealChannel\""
par RGG.node[57].port$o[3].channel typename "\"ned.IdealChannel\""
par RGG.node[15].port$o[9].channel typename "\"ned.IdealChannel\""
par RGG.node[66].port$o[3].channel typename "\"ned.IdealChannel\""
par RGG.node[15].port$o[10].channel typename "\"ned.IdealChannel\""
par RGG.node[74].port$o[3].channel typename "\"ned.IdealChannel\""
par RGG.node[15].port$o[11].channel typename "\"ned.IdealChannel\""
par RGG.node[76].port$o[3].channel typename "\"ned.IdealChannel\""
par RGG.node[15].port$o[12].channel typename "\"ned.IdealChannel\""
par RGG.node[84].port$o[2].channel typename "\"ned.IdealChannel\""
par RGG.node[15].port$o[13].channel typename "\"ned.IdealChannel\""
par RGG.node[86].port$o[2].channel typename "\"ned.IdealChannel\""
par RGG.node[15].port$o[14].channel typename "\"ned.IdealChannel\""
par RGG.node[94].port$o[2].channel typename "\"ned.IdealChannel\""
par RGG.node[15].port$o[15].channel typename "\"ned.IdealChannel\""
par RGG.node[95].port$o[3].channel typename "\"ned.IdealChannel\""
par RGG.node[15].port$o[16].channel typename "\"ned.IdealChannel\""
par RGG.node[97].port$o[3].channel typename "\"ned.IdealChannel\""
par RGG.node[16].port$o[1].channel typename "\"ned.IdealChannel\""
par RGG.node[20].port$o[0].channel typename "\"ned.IdealChannel\""
par RGG.node[16].port$o[2].channel typename "\"ned.IdealChannel\""
par RGG.node[26].port$o[1].channel typename "\"ned.IdealChannel\""
par RGG.node[16].port$o[3].channel typename "\"ned.IdealChannel\""
par RGG.node[31].port$o[2].channel typename "\"ned.IdealChannel\""
par RGG.node[16].port$o[4].channel typename "\"ned.IdealChannel\""
par RGG.node[47].port$o[2].channel typename "\"ned.IdealChannel\""
par RGG.node[16].port$o[5].channel typename "\"ned.IdealChannel\""
par RGG.node[56].port$o[2].channel typename "\"ned.IdealChannel\""
par RGG.node[16].port$o[6].channel typename "\"ned.IdealChannel\""
par RGG.node[59].port$o[3].channel typename "\"ned.IdealChannel\""
par RGG.node[16].port$o[7].channel typename "\"ned.IdealChannel\""
par RGG.node[65].port$o[2].channel typename "\"ned.IdealChannel\""
par RGG.node[16].port$o[8].channel typename "\"ned.IdealChannel\""
par RGG.node[69].port$o[0].channel typename "\"ned.IdealChannel\""
par RGG.node[16].port$o[9].channel typename "\"ned.IdealChannel\""
par RGG.node[72].port$o[2].channel typename "\"ned.IdealChannel\""
par RGG.node[16].port$o[10].channel typename "\"ned.IdealChannel\""
par RGG.node[83].port$o[2].channel typename "\"ned.IdealChannel\""
par RGG.node[16].port$o[11].channel typename "\"ned.IdealChannel\""
par RGG.node[89].port$o[2].channel typename "\"ned.IdealChannel\""
par RGG.node[16].port$o[12].channel typename "\"ned.IdealChannel\""
par RGG.node[92].port$o[2].channel typename "\"ned.IdealChannel\""
par RGG.node[17].port$o[1].channel typename "\"ned.IdealChannel\""
par RGG.node[25].port$o[3].channel typename "\"ned.IdealChannel\""
par RGG.node[17].port$o[2].channel typename "\"ned.IdealChannel\""
par RGG.node[27].port$o[2].channel typename "\"ned.IdealChannel\""
par RGG.node[17].port$o[3].channel typename "\"ned.IdealChannel\""
par RGG.node[28].port$o[2].channel typename "\"ned.IdealChannel\""
par RGG.node[17].port$o[4].channel typename "\"ned.IdealChannel\""
par RGG.node[29].port$o[2].channel typename "\"ned.IdealChannel\""
par RGG.node[17].port$o[5].channel typename "\"ned.IdealChannel\""
par RGG.node[35].port$o[3].channel typename "\"ned.IdealChannel\""
par RGG.node[17].port$o[6].channel typename "\"ned.IdealChannel\""
par RGG.node[50].port$o[2].channel typename "\"ned.IdealChannel\""
par RGG.node[17].port$o[7].channel typename "\"ned.IdealChannel\""
par RGG.node[68].port$o[2].channel typename "\"ned.IdealChannel\""
par RGG.node[17].port$o[8].channel typename "\"ned.IdealChannel\""
par RGG.node[71].port$o[2].channel typename "\"ned.IdealChannel\""
par RGG.node[18].port$o[3].channel typename "\"ned.IdealChannel\""
par RGG.node[19].port$o[3].channel typename "\"ned.IdealChannel\""
par RGG.node[18].port$o[4].channel typename "\"ned.IdealChannel\""
par RGG.node[24].port$o[2].channel typename "\"ned.IdealChannel\""
par RGG.node[18].port$o[5].channel typename "\"ned.IdealChannel\""
par RGG.node[30].port$o[3].channel typename "\"ned.IdealChannel\""
par RGG.node[18].port$o[6].channel typename "\"ned.IdealChannel\""
par RGG.node[32].port$o[3].channel typename "\"ned.IdealChannel\""
par RGG.node[18].port$o[7].channel typename "\"ned.IdealChannel\""
par RGG.node[38].port$o[1].channel typename "\"ned.IdealChannel\""
par RGG.node[18].port$o[8].channel typename "\"ned.IdealChannel\""
par RGG.node[40].port$o[2].channel typename "\"ned.IdealChannel\""
par RGG.node[18].port$o[9].channel typename "\"ned.IdealChannel\""
par RGG.node[45].port$o[3].channel typename "\"ned.IdealChannel\""
par RGG.node[18].port$o[10].channel typename "\"ned.IdealChannel\""
par RGG.node[53].port$o[3].channel typename "\"ned.IdealChannel\""
par RGG.node[18].port$o[11].channel typename "\"ned.IdealChannel\""
par RGG.node[57].port$o[4].channel typename "\"ned.IdealChannel\""
par RGG.node[18].port$o[12].channel typename "\"ned.IdealChannel\""
par RGG.node[58].port$o[0].channel typename "\"ned.IdealChannel\""
par RGG.node[18].port$o[13].channel typename "\"ned.IdealChannel\""
par RGG.node[75].port$o[3].channel typename "\"ned.IdealChannel\""
par RGG.node[18].port$o[14].channel typename "\"ned.IdealChannel\""
par RGG.node[80].port$o[3].channel typename "\"ned.IdealChannel\""
par RGG.node[18].port$o[15].channel typename "\"ned.IdealChannel\""
par RGG.node[84].port$o[3].channel typename "\"ned.IdealChannel\""
par RGG.node[18].port$o[16].channel typename "\"ned.IdealChannel\""
par RGG.node[85].port$o[2].channel typename "\"ned.IdealChannel\""
par RGG.node[18].port$o[17].channel typename "\"ned.IdealChannel\""
par RGG.node[86].port$o[3].channel typename "\"ned.IdealChannel\""
par RGG.node[19].port$o[4].channel typename "\"ned.IdealChannel\""
par RGG.node[24].port$o[3].channel typename "\"ned.IdealChannel\""
par RGG.node[19].port$o[5].channel typename "\"ned.IdealChannel\""
par RGG.node[32].port$o[4].channel typename "\"ned.IdealChannel\""
par RGG.node[19].port$o[6].channel typename "\"ned.IdealChannel\""
par RGG.node[38].port$o[2].channel typename "\"ned.IdealChannel\""
par RGG.node[19].port$o[7].channel typename "\"ned.IdealChannel\""
par RGG.node[42].port$o[0].channel typename "\"ned.IdealChannel\""
par RGG.node[19].port$o[8].channel typename "\"ned.IdealChannel\""
par RGG.node[46].port$o[1].channel typename "\"ned.IdealChannel\""
par RGG.node[19].port$o[9].channel typename "\"ned.IdealChannel\""
par RGG.node[52].port$o[0].channel typename "\"ned.IdealChannel\""
par RGG.node[19].port$o[10].channel typename "\"ned.IdealChannel\""
par RGG.node[53].port$o[4].channel typename "\"ned.IdealChannel\""
par RGG.node[19].port$o[11].channel typename "\"ned.IdealChannel\""
par RGG.node[57].port$o[5].channel typename "\"ned.IdealChannel\""
par RGG.node[19].port$o[12].channel typename "\"ned.IdealChannel\""
par RGG.node[58].port$o[1].channel typename "\"ned.IdealChannel\""
par RGG.node[19].port$o[13].channel typename "\"ned.IdealChannel\""
par RGG.node[75].port$o[4].channel typename "\"ned.IdealChannel\""
par RGG.node[19].port$o[14].channel typename "\"ned.IdealChannel\""
par RGG.node[80].port$o[4].channel typename "\"ned.IdealChannel\""
par RGG.node[19].port$o[15].channel typename "\"ned.IdealChannel\""
par RGG.node[85].port$o[3].channel typename "\"ned.IdealChannel\""
par RGG.node[19].port$o[16].channel typename "\"ned.IdealChannel\""
par RGG.node[90].port$o[0].channel typename "\"ned.IdealChannel\""
par RGG.node[19].port$o[17].channel typename "\"ned.IdealChannel\""
par RGG.node[99].port$o[0].channel typename "\"ned.IdealChannel\""
par RGG.node[20].port$o[1].channel typename "\"ned.IdealChannel\""
par RGG.node[26].port$o[2].channel typename "\"ned.IdealChannel\""
par RGG.node[20].port$o[2].channel typename "\"ned.IdealChannel\""
par RGG.node[31].port$o[3].channel typename "\"ned.IdealChannel\""
par RGG.node[20].port$o[3].channel typename "\"ned.IdealChannel\""
par RGG.node[34].port$o[0].channel typename "\"ned.IdealChannel\""
par RGG.node[20].port$o[4].channel typename "\"ned.IdealChannel\""
par RGG.node[43].port$o[0].channel typename "\"ned.IdealChannel\""
par RGG.node[20].port$o[5].channel typename "\"ned.IdealChannel\""
par RGG.node[48].port$o[1].channel typename "\"ned.IdealChannel\""
par RGG.node[20].port$o[6].channel typename "\"ned.IdealChannel\""
par RGG.node[55].port$o[2].channel typename "\"ned.IdealChannel\""
par RGG.node[20].port$o[7].channel typename "\"ned.IdealChannel\""
par RGG.node[56].port$o[3].channel typename "\"ned.IdealChannel\""
par RGG.node[20].port$o[8].channel typename "\"ned.IdealChannel\""
par RGG.node[59].port$o[4].channel typename "\"ned.IdealChannel\""
par RGG.node[20].port$o[9].channel typename "\"ned.IdealChannel\""
par RGG.node[63].port$o[0].channel typename "\"ned.IdealChannel\""
par RGG.node[20].port$o[10].channel typename "\"ned.IdealChannel\""
par RGG.node[69].port$o[1].channel typename "\"ned.IdealChannel\""
par RGG.node[20].port$o[11].channel typename "\"ned.IdealChannel\""
par RGG.node[78].port$o[0].channel typename "\"ned.IdealChannel\""
par RGG.node[20].port$o[12].channel typename "\"ned.IdealChannel\""
par RGG.node[92].port$o[3].channel typename "\"ned.IdealChannel\""
par RGG.node[21].port$o[3].channel typename "\"ned.IdealChannel\""
par RGG.node[23].port$o[3].channel typename "\"ned.IdealChannel\""
par RGG.node[21].port$o[4].channel typename "\"ned.IdealChannel\""
par RGG.node[30].port$o[4].channel typename "\"ned.IdealChannel\""
par RGG.node[21].port$o[5].channel typename "\"ned.IdealChannel\""
par RGG.node[37].port$o[4].channel typename "\"ned.IdealChannel\""
par RGG.node[21].port$o[6].channel typename "\"ned.IdealChannel\""
par RGG.node[44].port$o[3].channel typename "\"ned.IdealChannel\""
par RGG.node[21].port$o[7].channel typename "\"ned.IdealChannel\""
par RGG.node[49].port$o[4].channel typename "\"ned.IdealChannel\""
par RGG.node[21].port$o[8].channel typename "\"ned.IdealChannel\""
par RGG.node[66].port$o[4].channel typename "\"ned.IdealChannel\""
par RGG.node[21].port$o[9].channel typename "\"ned.IdealChannel\""
par RGG.node[74].port$o[4].channel typename "\"ned.IdealChannel\""
par RGG.node[21].port$o[10].channel typename "\"ned.IdealChannel\""
par RGG.node[76].port$o[4].channel typename "\"ned.IdealChannel\""
par RGG.node[21].port$o[11].channel typename "\"ned.IdealChannel\""
par RGG.node[86].port$o[4].channel typename "\"ned.IdealChannel\""
par RGG.node[21].port$o[12].channel typename "\"ned.IdealChannel\""
par RGG.node[94].port$o[3].channel typename "\"ned.IdealChannel\""
par RGG.node[21].port$o[13].channel typename "\"ned.IdealChannel\""
par RGG.node[95].port$o[4].channel typename "\"ned.IdealChannel\""
par RGG.node[21].port$o[14].channel typename "\"ned.IdealChannel\""
par RGG.node[97].port$o[4].channel typename "\"ned.IdealChannel\""
par RGG.node[22].port$o[3].channel typename "\"ned.IdealChannel\""
par RGG.node[47].port$o[3].channel typename "\"ned.IdealChannel\""
par RGG.node[22].port$o[4].channel typename "\"ned.IdealChannel\""
par RGG.node[77].port$o[2].channel typename "\"ned.IdealChannel\""
par RGG.node[22].port$o[5].channel typename "\"ned.IdealChannel\""
par RGG.node[79].port$o[2].channel typename "\"ned.IdealChannel\""
par RGG.node[22].port$o[6].channel typename "\"ned.IdealChannel\""
par RGG.node[81].port$o[2].channel typename "\"ned.IdealChannel\""
par RGG.node[22].port$o[7].channel typename "\"ned.IdealChannel\""
par RGG.node[83].port$o[3].channel typename "\"ned.IdealChannel\""
par RGG.node[22].port$o[8].channel typename "\"ned.IdealChannel\""
par RGG.node[89].port$o[3].channel typename "\"ned.IdealChannel\""
par RGG.node[23].port$o[4].channel typename "\"ned.IdealChannel\""
par RGG.node[27].port$o[3].channel typename "\"ned.IdealChannel\""
par RGG.node[23].port$o[5].channel typename "\"ned.IdealChannel\""
par RGG.node[30].port$o[5].channel typename "\"ned.IdealChannel\""
par RGG.node[23].port$o[6].channel typename "\"ned.IdealChannel\""
par RGG.node[37].port$o[5].channel typename "\"ned.IdealChannel\""
par RGG.node[23].port$o[7].channel typename "\"ned.IdealChannel\""
par RGG.node[40].port$o[3].channel typename "\"ned.IdealChannel\""
par RGG.node[23].port$o[8].channel typename "\"ned.IdealChannel\""
par RGG.node[49].port$o[5].channel typename "\"ned.IdealChannel\""
par RGG.node[23].port$o[9].channel typename "\"ned.IdealChannel\""
par RGG.node[57].port$o[6].channel typename "\"ned.IdealChannel\""
par RGG.node[23].port$o[10].channel typename "\"ned.IdealChannel\""
par RGG.node[58].port$o[2].channel typename "\"ned.IdealChannel\""
par RGG.node[23].port$o[11].channel typename "\"ned.IdealChannel\""
par RGG.node[66].port$o[5].channel typename "\"ned.IdealChannel\""
par RGG.node[23].port$o[12].channel typename "\"ned.IdealChannel\""
par RGG.node[74].port$o[5].channel typename "\"ned.IdealChannel\""
par RGG.node[23].port$o[13].channel typename "\"ned.IdealChannel\""
par RGG.node[76].port$o[5].channel typename "\"ned.IdealChannel\""
par RGG.node[23].port$o[14].channel typename "\"ned.IdealChannel\""
par RGG.node[84].port$o[4].channel typename "\"ned.IdealChannel\""
par RGG.node[23].port$o[15].channel typename "\"ned.IdealChannel\""
par RGG.node[86].port$o[5].channel typename "\"ned.IdealChannel\""
par RGG.node[23].port$o[16].channel typename "\"ned.IdealChannel\""
par RGG.node[94].port$o[4].channel typename "\"ned.IdealChannel\""
par RGG.node[23].port$o[17].channel typename "\"ned.IdealChannel\""
par RGG.node[95].port$o[5].channel typename "\"ned.IdealChannel\""
par RGG.node[23].port$o[18].channel typename "\"ned.IdealChannel\""
par RGG.node[97].port$o[5].channel typename "\"ned.IdealChannel\""
par RGG.node[24].port$o[4].channel typename "\"ned.IdealChannel\""
par RGG.node[32].port$o[5].channel typename "\"ned.IdealChannel\""
par RGG.node[24].port$o[5].channel typename "\"ned.IdealChannel\""
par RGG.node[33].port$o[1].channel typename "\"ned.IdealChannel\""
par RGG.node[24].port$o[6].channel typename "\"ned.IdealChannel\""
par RGG.node[38].port$o[3].channel typename "\"ned.IdealChannel\""
par RGG.node[24].port$o[7].channel typename "\"ned.IdealChannel\""
par RGG.node[42].port$o[1].channel typename "\"ned.IdealChannel\""
par RGG.node[24].port$o[8].channel typename "\"ned.IdealChannel\""
par RGG.node[46].port$o[2].channel typename "\"ned.IdealChannel\""
par RGG.node[24].port$o[9].channel typename "\"ned.IdealChannel\""
par RGG.node[52].port$o[1].channel typename "\"ned.IdealChannel\""
par RGG.node[24].port$o[10].channel typename "\"ned.IdealChannel\""
par RGG.node[53].port$o[5].channel typename "\"ned.IdealChannel\""
par RGG.node[24].port$o[11].channel typename "\"ned.IdealChannel\""
par RGG.node[57].port$o[7].channel typename "\"ned.IdealChannel\""
par RGG.node[24].port$o[12].channel typename "\"ned.IdealChannel\""
par RGG.node[58].port$o[3].channel typename "\"ned.IdealChannel\""
par RGG.node[24].port$o[13].channel typename "\"ned.IdealChannel\""
par RGG.node[62].port$o[1].channel typename "\"ned.IdealChannel\""
par RGG.node[24].port$o[14].channel typename "\"ned.IdealChannel\""
par RGG.node[75].port$o[5].channel typename "\"ned.IdealChannel\""
par RGG.node[24].port$o[15].channel typename "\"ned.IdealChannel\""
par RGG.node[80].port$o[5].channel typename "\"ned.IdealChannel\""
par RGG.node[24].port$o[16].channel typename "\"ned.IdealChannel\""
par RGG.node[85].port$o[4].channel typename "\"ned.IdealChannel\""
par RGG.node[24].port$o[17].channel typename "\"ned.IdealChannel\""
par RGG.node[90].port$o[1].channel typename "\"ned.IdealChannel\""
par RGG.node[24].port$o[18].channel typename "\"ned.IdealChannel\""
par RGG.node[96].port$o[1].channel typename "\"ned.IdealChannel\""
par RGG.node[24].port$o[19].channel typename "\"ned.IdealChannel\""
par RGG.node[99].port$o[1].channel typename "\"ned.IdealChannel\""
par RGG.node[25].port$o[4].channel typename "\"ned.IdealChannel\""
par RGG.node[28].port$o[3].channel typename "\"ned.IdealChannel\""
par RGG.node[25].port$o[5].channel typename "\"ned.IdealChannel\""
par RGG.node[29].port$o[3].channel typename "\"ned.IdealChannel\""
par RGG.node[25].port$o[6].channel typename "\"ned.IdealChannel\""
par RGG.node[31].port$o[4].channel typename "\"ned.IdealChannel\""
par RGG.node[25].port$o[7].channel typename "\"ned.IdealChannel\""
par RGG.node[35].port$o[4].channel typename "\"ned.IdealChannel\""
par RGG.node[25].port$o[8].channel typename "\"ned.IdealChannel\""
par RGG.node[59].port$o[5].channel typename "\"ned.IdealChannel\""
par RGG.node[25].port$o[9].channel typename "\"ned.IdealChannel\""
par RGG.node[65].port$o[3].channel typename "\"ned.IdealChannel\""
par RGG.node[25].port$o[10].channel typename "\"ned.IdealChannel\""
par RGG.node[68].port$o[3].channel typename "\"ned.IdealChannel\""
par RGG.node[25].port$o[11].channel typename "\"ned.IdealChannel\""
par RGG.node[71].port$o[3].channel typename "\"ned.IdealChannel\""
par RGG.node[25].port$o[12].channel typename "\"ned.IdealChannel\""
par RGG.node[77].port$o[3].channel typename "\"ned.IdealChannel\""
par RGG.node[25].port$o[13].channel typename "\"ned.IdealChannel\""
par RGG.node[89].port$o[4].channel typename "\"ned.IdealChannel\""
par RGG.node[25].port$o[14].channel typename "\"ned.IdealChannel\""
par RGG.node[91].port$o[2].channel typename "\"ned.IdealChannel\""
par RGG.node[26].port$o[3].channel typename "\"ned.IdealChannel\""
par RGG.node[31].port$o[5].channel typename "\"ned.IdealChannel\""
par RGG.node[26].port$o[4].channel typename "\"ned.IdealChannel\""
par RGG.node[34].port$o[1].channel typename "\"ned.IdealChannel\""
par RGG.node[26].port$o[5].channel typename "\"ned.IdealChannel\""
par RGG.node[36].port$o[2].channel typename "\"ned.IdealChannel\""
par RGG.node[26].port$o[6].channel typename "\"ned.IdealChannel\""
par RGG.node[47].port$o[4].channel typename "\"ned.IdealChannel\""
par RGG.node[26].port$o[7].channel typename "\"ned.IdealChannel\""
par RGG.node[48].port$o[2].channel typename "\"ned.IdealChannel\""
par RGG.node[26].port$o[8].channel typename "\"ned.IdealChannel\""
par RGG.node[54].port$o[4].channel typename "\"ned.IdealChannel\""
par RGG.node[26].port$o[9].channel typename "\"ned.IdealChannel\""
par RGG.node[56].port$o[4].channel typename "\"ned.IdealChannel\""
par RGG.node[26].port$o[10].channel typename "\"ned.IdealChannel\""
par RGG.node[69].port$o[2].channel typename "\"ned.IdealChannel\""
par RGG.node[26].port$o[11].channel typename "\"ned.IdealChannel\""
par RGG.node[72].port$o[3].channel typename "\"ned.IdealChannel\""
par RGG.node[26].port$o[12].channel typename "\"ned.IdealChannel\""
par RGG.node[83].port$o[4].channel typename "\"ned.IdealChannel\""
par RGG.node[26].port$o[13].channel typename "\"ned.IdealChannel\""
par RGG.node[92].port$o[4].channel typename "\"ned.IdealChannel\""
par RGG.node[27].port$o[4].channel typename "\"ned.IdealChannel\""
par RGG.node[28].port$o[4].channel typename "\"ned.IdealChannel\""
par RGG.node[27].port$o[5].channel typename "\"ned.IdealChannel\""
par RGG.node[35].port$o[5].channel typename "\"ned.IdealChannel\""
par RGG.node[27].port$o[6].channel typename "\"ned.IdealChannel\""
par RGG.node[37].port$o[6].channel typename "\"ned.IdealChannel\""
par RGG.node[27].port$o[7].channel typename "\"ned.IdealChannel\""
par RGG.node[43].port$o[1].channel typename "\"ned.IdealChannel\""
par RGG.node[27].port$o[8].channel typename "\"ned.IdealChannel\""
par RGG.node[49].port$o[6].channel typename "\"ned.IdealChannel\""
par RGG.node[27].port$o[9].channel typename "\"ned.IdealChannel\""
par RGG.node[55].port$o[3].channel typename "\"ned.IdealChannel\""
par RGG.node[27].port$o[10].channel typename "\"ned.IdealChannel\""
par RGG.node[59].port$o[6].channel typename "\"ned.IdealChannel\""
par RGG.node[27].port$o[11].channel typename "\"ned.IdealChannel\""
par RGG.node[63].port$o[1].channel typename "\"ned.IdealChannel\""
par RGG.node[27].port$o[12].channel typename "\"ned.IdealChannel\""
par RGG.node[66].port$o[6].channel typename "\"ned.IdealChannel\""
par RGG.node[27].port$o[13].channel typename "\"ned.IdealChannel\""
par RGG.node[74].port$o[6].channel typename "\"ned.IdealChannel\""
par RGG.node[27].port$o[14].channel typename "\"ned.IdealChannel\""
par RGG.node[76].port$o[6].channel typename "\"ned.IdealChannel\""
par RGG.node[27].port$o[15].channel typename "\"ned.IdealChannel\""
par RGG.node[95].port$o[6].channel typename "\"ned.IdealChannel\""
par RGG.node[27].port$o[16].channel typename "\"ned.IdealChannel\""
par RGG.node[97].port$o[6].channel typename "\"ned.IdealChannel\""
par RGG.node[28].port$o[5].channel typename "\"ned.IdealChannel\""
par RGG.node[29].port$o[4].channel typename "\"ned.IdealChannel\""
par RGG.node[28].port$o[6].channel typename "\"ned.IdealChannel\""
par RGG.node[35].port$o[6].channel typename "\"ned.IdealChannel\""
par RGG.node[28].port$o[7].channel typename "\"ned.IdealChannel\""
par RGG.node[50].port$o[3].channel typename "\"ned.IdealChannel\""
par RGG.node[28].port$o[8].channel typename "\"ned.IdealChannel\""
par RGG.node[55].port$o[4].channel typename "\"ned.IdealChannel\""
par RGG.node[28].port$o[9].channel typename "\"ned.IdealChannel\""
par RGG.node[59].port$o[7].channel typename "\"ned.IdealChannel\""
par RGG.node[28].port$o[10].channel typename "\"ned.IdealChannel\""
par RGG.node[65].port$o[4].channel typename "\"ned.IdealChannel\""
par RGG.node[28].port$o[11].channel typename "\"ned.IdealChannel\""
par RGG.node[66].port$o[7].channel typename "\"ned.IdealChannel\""
par RGG.node[28].port$o[12].channel typename "\"ned.IdealChannel\""
par RGG.node[71].port$o[4].channel typename "\"ned.IdealChannel\""
par RGG.node[28].port$o[13].channel typename "\"ned.IdealChannel\""
par RGG.node[76].port$o[7].channel typename "\"ned.IdealChannel\""
par RGG.node[28].port$o[14].channel typename "\"ned.IdealChannel\""
par RGG.node[95].port$o[7].channel typename "\"ned.IdealChannel\""
par RGG.node[28].port$o[15].channel typename "\"ned.IdealChannel\""
par RGG.node[97].port$o[7].channel typename "\"ned.IdealChannel\""
par RGG.node[29].port$o[5].channel typename "\"ned.IdealChannel\""
par RGG.node[35].port$o[7].channel typename "\"ned.IdealChannel\""
par RGG.node[29].port$o[6].channel typename "\"ned.IdealChannel\""
par RGG.node[50].port$o[4].channel typename "\"ned.IdealChannel\""
par RGG.node[29].port$o[7].channel typename "\"ned.IdealChannel\""
par RGG.node[68].port$o[4].channel typename "\"ned.IdealChannel\""
par RGG.node[29].port$o[8].channel typename "\"ned.IdealChannel\""
par RGG.node[71].port$o[5].channel typename "\"ned.IdealChannel\""
par RGG.node[29].port$o[9].channel typename "\"ned.IdealChannel\""
par RGG.node[91].port$o[3].channel typename "\"ned.IdealChannel\""
par RGG.node[30].port$o[6].channel typename "\"ned.IdealChannel\""
par RGG.node[37].port$o[7].channel typename "\"ned.IdealChannel\""
par RGG.node[30].port$o[7].channel typename "\"ned.IdealChannel\""
par RGG.node[40].port$o[4].channel typename "\"ned.IdealChannel\""
par RGG.node[30].port$o[8].channel typename "\"ned.IdealChannel\""
par RGG.node[49].port$o[7].channel typename "\"ned.IdealChannel\""
par RGG.node[30].port$o[9].channel typename "\"ned.IdealChannel\""
par RGG.node[57].port$o[8].channel typename "\"ned.IdealChannel\""
par RGG.node[30].port$o[10].channel typename "\"ned.IdealChannel\""
par RGG.node[58].port$o[4].channel typename "\"ned.IdealChannel\""
par RGG.node[30].port$o[11].channel typename "\"ned.IdealChannel\""
par RGG.node[66].port$o[8].channel typename "\"ned.IdealChannel\""
par RGG.node[30].port$o[12].channel typename "\"ned.IdealChannel\""
par RGG.node[74].port$o[7].channel typename "\"ned.IdealChannel\""
par RGG.node[30].port$o[13].channel typename "\"ned.IdealChannel\""
par RGG.node[76].port$o[8].channel typename "\"ned.IdealChannel\""
par RGG.node[30].port$o[14].channel typename "\"ned.IdealChannel\""
par RGG.node[84].port$o[5].channel typename "\"ned.IdealChannel\""
par RGG.node[30].port$o[15].channel typename "\"ned.IdealChannel\""
par RGG.node[86].port$o[6].channel typename "\"ned.IdealChannel\""
par RGG.node[30].port$o[16].channel typename "\"ned.IdealChannel\""
par RGG.node[94].port$o[5].channel typename "\"ned.IdealChannel\""
par RGG.node[30].port$o[17].channel typename "\"ned.IdealChannel\""
par RGG.node[95].port$o[8].channel typename "\"ned.IdealChannel\""
par RGG.node[30].port$o[18].channel typename "\"ned.IdealChannel\""
par RGG.node[97].port$o[8].channel typename "\"ned.IdealChannel\""
par RGG.node[31].port$o[6].channel typename "\"ned.IdealChannel\""
par RGG.node[35].port$o[8].channel typename "\"ned.IdealChannel\""
par RGG.node[31].port$o[7].channel typename "\"ned.IdealChannel\""
par RGG.node[43].port$o[2].channel typename "\"ned.IdealChannel\""
par RGG.node[31].port$o[8].channel typename "\"ned.IdealChannel\""
par RGG.node[47].port$o[5].channel typename "\"ned.IdealChannel\""
par RGG.node[31].port$o[9].channel typename "\"ned.IdealChannel\""
par RGG.node[55].port$o[5].channel typename "\"ned.IdealChannel\""
par RGG.node[31].port$o[10].channel typename "\"ned.IdealChannel\""
par RGG.node[59].port$o[8].channel typename "\"ned.IdealChannel\""
par RGG.node[31].port$o[11].channel typename "\"ned.IdealChannel\""
par RGG.node[65].port$o[5].channel typename "\"ned.IdealChannel\""
par RGG.node[31].port$o[12].channel typename "\"ned.IdealChannel\""
par RGG.node[77].port$o[4].channel typename "\"ned.IdealChannel\""
par RGG.node[31].port$o[13].channel typename "\"ned.IdealChannel\""
par RGG.node[83].port$o[5].channel typename "\"ned.IdealChannel\""
par RGG.node[31].port$o[14].channel typename "\"ned.IdealChannel\""
par RGG.node[89].port$o[5].channel typename "\"ned.IdealChannel\""
par RGG.node[31].port$o[15].channel typename "\"ned.IdealChannel\""
par RGG.node[91].port$o[4].channel typename "\"ned.IdealChannel\""
par RGG.node[31].port$o[16].channel typename "\"ned.IdealChannel\""
par RGG.node[92].port$o[5].channel typename "\"ned.IdealChannel\""
par RGG.node[32].port$o[6].channel typename "\"ned.IdealChannel\""
par RGG.node[38].port$o[4].channel typename "\"ned.IdealChannel\""
par RGG.node[32].port$o[7].channel typename "\"ned.IdealChannel\""
par RGG.node[40].port$o[5].channel typename "\"ned.IdealChannel\""
par RGG.node[32].port$o[8].channel typename "\"ned.IdealChannel\""
par RGG.node[42].port$o[2].channel typename "\"ned.IdealChannel\""
par RGG.node[32].port$o[9].channel typename "\"ned.IdealChannel\""
par RGG.node[46].port$o[3].channel typename "\"ned.IdealChannel\""
par RGG.node[32].port$o[10].channel typename "\"ned.IdealChannel\""
par RGG.node[52].port$o[2].channel typename "\"ned.IdealChannel\""
par RGG.node[32].port$o[11].channel typename "\"ned.IdealChannel\""
par RGG.node[53].port$o[6].channel typename "\"ned.IdealChannel\""
par RGG.node[32].port$o[12].channel typename "\"ned.IdealChannel\""
par RGG.node[57].port$o[9].channel typename "\"ned.IdealChannel\""
par RGG.node[32].port$o[13].channel typename "\"ned.IdealChannel\""
par RGG.node[58].port$o[5].channel typename "\"ned.IdealChannel\""
par RGG.node[32].port$o[14].channel typename "\"ned.IdealChannel\""
par RGG.node[75].port$o[6].channel typename "\"ned.IdealChannel\""
par RGG.node[32].port$o[15].channel typename "\"ned.IdealChannel\""
par RGG.node[80].port$o[6].channel typename "\"ned.IdealChannel\""
par RGG.node[32].port$o[16].channel typename "\"ned.IdealChannel\""
par RGG.node[85].port$o[5].channel typename "\"ned.IdealChannel\""
par RGG.node[32].port$o[17].channel typename "\"ned.IdealChannel\""
par RGG.node[90].port$o[2].channel typename "\"ned.IdealChannel\""
par RGG.node[32].port$o[18].channel typename "\"ned.IdealChannel\""
par RGG.node[99].port$o[2].channel typename "\"ned.IdealChannel\""
par RGG.node[33].port$o[2].channel typename "\"ned.IdealChannel\""
par RGG.node[34].port$o[2].channel typename "\"ned.IdealChannel\""
par RGG.node[33].port$o[3].channel typename "\"ned.IdealChannel\""
par RGG.node[38].port$o[5].channel typename "\"ned.IdealChannel\""
par RGG.node[33].port$o[4].channel typename "\"ned.IdealChannel\""
par RGG.node[42].port$o[3].channel typename "\"ned.IdealChannel\""
par RGG.node[33].port$o[5].channel typename "\"ned.IdealChannel\""
par RGG.node[46].port$o[4].channel typename "\"ned.IdealChannel\""
par RGG.node[33].port$o[6].channel typename "\"ned.IdealChannel\""
par RGG.node[48].port$o[3].channel typename "\"ned.IdealChannel\""
par RGG.node[33].port$o[7].channel typename "\"ned.IdealChannel\""
par RGG.node[51].port$o[4].channel typename "\"ned.IdealChannel\""
par RGG.node[33].port$o[8].channel typename "\"ned.IdealChannel\""
par RGG.node[52].port$o[3].channel typename "\"ned.IdealChannel\""
par RGG.node[33].port$o[9].channel typename "\"ned.IdealChannel\""
par RGG.node[54].port$o[5].channel typename "\"ned.IdealChannel\""
par RGG.node[33].port$o[10].channel typename "\"ned.IdealChannel\""
par RGG.node[62].port$o[2].channel typename "\"ned.IdealChannel\""
par RGG.node[33].port$o[11].channel typename "\"ned.IdealChannel\""
par RGG.node[64].port$o[4].channel typename "\"ned.IdealChannel\""
par RGG.node[33].port$o[12].channel typename "\"ned.IdealChannel\""
par RGG.node[67].port$o[1].channel typename "\"ned.IdealChannel\""
par RGG.node[33].port$o[13].channel typename "\"ned.IdealChannel\""
par RGG.node[69].port$o[3].channel typename "\"ned.IdealChannel\""
par RGG.node[33].port$o[14].channel typename "\"ned.IdealChannel\""
par RGG.node[73].port$o[4].channel typename "\"ned.IdealChannel\""
par RGG.node[33].port$o[15].channel typename "\"ned.IdealChannel\""
par RGG.node[78].port$o[1].channel typename "\"ned.IdealChannel\""
par RGG.node[33].port$o[16].channel typename "\"ned.IdealChannel\""
par RGG.node[82].port$o[3].channel typename "\"ned.IdealChannel\""
par RGG.node[33].port$o[17].channel typename "\"ned.IdealChannel\""
par RGG.node[87].port$o[4].channel typename "\"ned.IdealChannel\""
par RGG.node[33].port$o[18].channel typename "\"ned.IdealChannel\""
par RGG.node[88].port$o[1].channel typename "\"ned.IdealChannel\""
par RGG.node[33].port$o[19].channel typename "\"ned.IdealChannel\""
par RGG.node[90].port$o[3].channel typename "\"ned.IdealChannel\""
par RGG.node[33].port$o[20].channel typename "\"ned.IdealChannel\""
par RGG.node[96].port$o[2].channel typename "\"ned.IdealChannel\""
par RGG.node[33].port$o[21].channel typename "\"ned.IdealChannel\""
par RGG.node[98].port$o[4].channel typename "\"ned.IdealChannel\""
par RGG.node[33].port$o[22].channel typename "\"ned.IdealChannel\""
par RGG.node[99].port$o[3].channel typename "\"ned.IdealChannel\""
par RGG.node[34].port$o[3].channel typename "\"ned.IdealChannel\""
par RGG.node[42].port$o[4].channel typename "\"ned.IdealChannel\""
par RGG.node[34].port$o[4].channel typename "\"ned.IdealChannel\""
par RGG.node[43].port$o[3].channel typename "\"ned.IdealChannel\""
par RGG.node[34].port$o[5].channel typename "\"ned.IdealChannel\""
par RGG.node[48].port$o[4].channel typename "\"ned.IdealChannel\""
par RGG.node[34].port$o[6].channel typename "\"ned.IdealChannel\""
par RGG.node[52].port$o[4].channel typename "\"ned.IdealChannel\""
par RGG.node[34].port$o[7].channel typename "\"ned.IdealChannel\""
par RGG.node[58].port$o[6].channel typename "\"ned.IdealChannel\""
par RGG.node[34].port$o[8].channel typename "\"ned.IdealChannel\""
par RGG.node[62].port$o[3].channel typename "\"ned.IdealChannel\""
par RGG.node[34].port$o[9].channel typename "\"ned.IdealChannel\""
par RGG.node[63].port$o[2].channel typename "\"ned.IdealChannel\""
par RGG.node[34].port$o[10].channel typename "\"ned.IdealChannel\""
par RGG.node[67].port$o[2].channel typename "\"ned.IdealChannel\""
par RGG.node[34].port$o[11].channel typename "\"ned.IdealChannel\""
par RGG.node[69].port$o[4].channel typename "\"ned.IdealChannel\""
par RGG.node[34].port$o[12].channel typename "\"ned.IdealChannel\""
par RGG.node[73].port$o[5].channel typename "\"ned.IdealChannel\""
par RGG.node[34].port$o[13].channel typename "\"ned.IdealChannel\""
par RGG.node[78].port$o[2].channel typename "\"ned.IdealChannel\""
par RGG.node[34].port$o[14].channel typename "\"ned.IdealChannel\""
par RGG.node[88].port$o[2].channel typename "\"ned.IdealChannel\""
par RGG.node[34].port$o[15].channel typename "\"ned.IdealChannel\""
par RGG.node[90].port$o[4].channel typename "\"ned.IdealChannel\""
par RGG.node[34].port$o[16].channel typename "\"ned.IdealChannel\""
par RGG.node[96].port$o[3].channel typename "\"ned.IdealChannel\""
par RGG.node[34].port$o[17].channel typename "\"ned.IdealChannel\""
par RGG.node[99].port$o[4].channel typename "\"ned.IdealChannel\""
par RGG.node[35].port$o[9].channel typename "\"ned.IdealChannel\""
par RGG.node[55].port$o[6].channel typename "\"ned.IdealChannel\""
par RGG.node[35].port$o[10].channel typename "\"ned.IdealChannel\""
par RGG.node[59].port$o[9].channel typename "\"ned.IdealChannel\""
par RGG.node[35].port$o[11].channel typename "\"ned.IdealChannel\""
par RGG.node[65].port$o[6].channel typename "\"ned.IdealChannel\""
par RGG.node[35].port$o[12].channel typename "\"ned.IdealChannel\""
par RGG.node[68].port$o[5].channel typename "\"ned.IdealChannel\""
par RGG.node[35].port$o[13].channel typename "\"ned.IdealChannel\""
par RGG.node[71].port$o[6].channel typename "\"ned.IdealChannel\""
par RGG.node[35].port$o[14].channel typename "\"ned.IdealChannel\""
par RGG.node[77].port$o[5].channel typename "\"ned.IdealChannel\""
par RGG.node[35].port$o[15].channel typename "\"ned.IdealChannel\""
par RGG.node[89].port$o[6].channel typename "\"ned.IdealChannel\""
par RGG.node[35].port$o[16].channel typename "\"ned.IdealChannel\""
par RGG.node[91].port$o[5].channel typename "\"ned.IdealChannel\""
par RGG.node[36].port$o[3].channel typename "\"ned.IdealChannel\""
par RGG.node[39].port$o[4].channel typename "\"ned.IdealChannel\""
par RGG.node[36].port$o[4].channel typename "\"ned.IdealChannel\""
par RGG.node[48].port$o[5].channel typename "\"ned.IdealChannel\""
par RGG.node[36].port$o[5].channel typename "\"ned.IdealChannel\""
par RGG.node[54].port$o[6].channel typename "\"ned.IdealChannel\""
par RGG.node[36].port$o[6].channel typename "\"ned.IdealChannel\""
par RGG.node[56].port$o[5].channel typename "\"ned.IdealChannel\""
par RGG.node[36].port$o[7].channel typename "\"ned.IdealChannel\""
par RGG.node[72].port$o[4].channel typename "\"ned.IdealChannel\""
par RGG.node[36].port$o[8].channel typename "\"ned.IdealChannel\""
par RGG.node[73].port$o[6].channel typename "\"ned.IdealChannel\""
par RGG.node[36].port$o[9].channel typename "\"ned.IdealChannel\""
par RGG.node[87].port$o[5].channel typename "\"ned.IdealChannel\""
par RGG.node[36].port$o[10].channel typename "\"ned.IdealChannel\""
par RGG.node[98].port$o[5].channel typename "\"ned.IdealChannel\""
par RGG.node[37].port$o[8].channel typename "\"ned.IdealChannel\""
par RGG.node[40].port$o[6].channel typename "\"ned.IdealChannel\""
par RGG.node[37].port$o[9].channel typename "\"ned.IdealChannel\""
par RGG.node[49].port$o[8].channel typename "\"ned.IdealChannel\""
par RGG.node[37].port$o[10].channel typename "\"ned.IdealChannel\""
par RGG.node[55].port$o[7].channel typename "\"ned.IdealChannel\""
par RGG.node[37].port$o[11].channel typename "\"ned.IdealChannel\""
par RGG.node[58].port$o[7].channel typename "\"ned.IdealChannel\""
par RGG.node[37].port$o[12].channel typename "\"ned.IdealChannel\""
par RGG.node[63].port$o[3].channel typename "\"ned.IdealChannel\""
par RGG.node[37].port$o[13].channel typename "\"ned.IdealChannel\""
par RGG.node[66].port$o[9].channel typename "\"ned.IdealChannel\""
par RGG.node[37].port$o[14].channel typename "\"ned.IdealChannel\""
par RGG.node[74].port$o[8].channel typename "\"ned.IdealChannel\""
par RGG.node[37].port$o[15].channel typename "\"ned.IdealChannel\""
par RGG.node[76].port$o[9].channel typename "\"ned.IdealChannel\""
par RGG.node[37].port$o[16].channel typename "\"ned.IdealChannel\""
par RGG.node[84].port$o[6].channel typename "\"ned.IdealChannel\""
par RGG.node[37].port$o[17].channel typename "\"ned.IdealChannel\""
par RGG.node[86].port$o[7].channel typename "\"ned.IdealChannel\""
par RGG.node[37].port$o[18].channel typename "\"ned.IdealChannel\""
par RGG.node[94].port$o[6].channel typename "\"ned.IdealChannel\""
par RGG.node[37].port$o[19].channel typename "\"ned.IdealChannel\""
par RGG.node[95].port$o[9].channel typename "\"ned.IdealChannel\""
par RGG.node[37].port$o[20].channel typename "\"ned.IdealChannel\""
par RGG.node[97].port$o[9].channel typename "\"ned.IdealChannel\""
par RGG.node[38].port$o[6].channel typename "\"ned.IdealChannel\""
par RGG.node[42].port$o[5].channel typename "\"ned.IdealChannel\""
par RGG.node[38].port$o[7].channel typename "\"ned.IdealChannel\""
par RGG.node[46].port$o[5].channel typename "\"ned.IdealChannel\""
par RGG.node[38].port$o[8].channel typename "\"ned.IdealChannel\""
par RGG.node[52].port$o[5].channel typename "\"ned.IdealChannel\""
par RGG.node[38].port$o[9].channel typename "\"ned.IdealChannel\""
par RGG.node[53].port$o[7].channel typename "\"ned.IdealChannel\""
par RGG.node[38].port$o[10].channel typename "\"ned.IdealChannel\""
par RGG.node[57].port$o[10].channel typename "\"ned.IdealChannel\""
par RGG.node[38].port$o[11].channel typename "\"ned.IdealChannel\""
par RGG.node[62].port$o[4].channel typename "\"ned.IdealChannel\""
par RGG.node[38].port$o[12].channel typename "\"ned.IdealChannel\""
par RGG.node[75].port$o[7].channel typename "\"ned.IdealChannel\""
par RGG.node[38].port$o[13].channel typename "\"ned.IdealChannel\""
par RGG.node[80].port$o[7].channel typename "\"ned.IdealChannel\""
par RGG.node[38].port$o[14].channel typename "\"ned.IdealChannel\""
par RGG.node[85].port$o[6].channel typename "\"ned.IdealChannel\""
par RGG.node[38].port$o[15].channel typename "\"ned.IdealChannel\""
par RGG.node[90].port$o[5].channel typename "\"ned.IdealChannel\""
par RGG.node[38].port$o[16].channel typename "\"ned.IdealChannel\""
par RGG.node[96].port$o[4].channel typename "\"ned.IdealChannel\""
par RGG.node[38].port$o[17].channel typename "\"ned.IdealChannel\""
par RGG.node[99].port$o[5].channel typename "\"ned.IdealChannel\""
par RGG.node[39].port$o[5].channel typename "\"ned.IdealChannel\""
par RGG.node[41].port$o[3].channel typename "\"ned.IdealChannel\""
par RGG.node[39].port$o[6].channel typename "\"ned.IdealChannel\""
par RGG.node[48].port$o[6].channel typename "\"ned.IdealChannel\""
par RGG.node[39].port$o[7].channel typename "\"ned.IdealChannel\""
par RGG.node[51].port$o[5].channel typename "\"ned.IdealChannel\""
par RGG.node[39].port$o[8].channel typename "\"ned.IdealChannel\""
par RGG.node[54].port$o[7].channel typename "\"ned.IdealChannel\""
par RGG.node[39].port$o[9].channel typename "\"ned.IdealChannel\""
par RGG.node[60].port$o[4].channel typename "\"ned.IdealChannel\""
par RGG.node[39].port$o[10].channel typename "\"ned.IdealChannel\""
par RGG.node[61].port$o[4].channel typename "\"ned.IdealChannel\""
par RGG.node[39].port$o[11].channel typename "\"ned.IdealChannel\""
par RGG.node[64].port$o[5].channel typename "\"ned.IdealChannel\""
par RGG.node[39].port$o[12].channel typename "\"ned.IdealChannel\""
par RGG.node[70].port$o[4].channel typename "\"ned.IdealChannel\""
par RGG.node[39].port$o[13].channel typename "\"ned.IdealChannel\""
par RGG.node[73].port$o[7].channel typename "\"ned.IdealChannel\""
par RGG.node[39].port$o[14].channel typename "\"ned.IdealChannel\""
par RGG.node[87].port$o[6].channel typename "\"ned.IdealChannel\""
par RGG.node[39].port$o[15].channel typename "\"ned.IdealChannel\""
par RGG.node[93].port$o[4].channel typename "\"ned.IdealChannel\""
par RGG.node[39].port$o[16].channel typename "\"ned.IdealChannel\""
par RGG.node[98].port$o[6].channel typename "\"ned.IdealChannel\""
par RGG.node[40].port$o[7].channel typename "\"ned.IdealChannel\""
par RGG.node[57].port$o[11].channel typename "\"ned.IdealChannel\""
par RGG.node[40].port$o[8].channel typename "\"ned.IdealChannel\""
par RGG.node[58].port$o[8].channel typename "\"ned.IdealChannel\""
par RGG.node[40].port$o[9].channel typename "\"ned.IdealChannel\""
par RGG.node[66].port$o[10].channel typename "\"ned.IdealChannel\""
par RGG.node[40].port$o[10].channel typename "\"ned.IdealChannel\""
par RGG.node[76].port$o[10].channel typename "\"ned.IdealChannel\""
par RGG.node[40].port$o[11].channel typename "\"ned.IdealChannel\""
par RGG.node[84].port$o[7].channel typename "\"ned.IdealChannel\""
par RGG.node[40].port$o[12].channel typename "\"ned.IdealChannel\""
par RGG.node[85].port$o[7].channel typename "\"ned.IdealChannel\""
par RGG.node[40].port$o[13].channel typename "\"ned.IdealChannel\""
par RGG.node[86].port$o[8].channel typename "\"ned.IdealChannel\""
par RGG.node[40].port$o[14].channel typename "\"ned.IdealChannel\""
par RGG.node[94].port$o[7].channel typename "\"ned.IdealChannel\""
par RGG.node[40].port$o[15].channel typename "\"ned.IdealChannel\""
par RGG.node[97].port$o[10].channel typename "\"ned.IdealChannel\""
par RGG.node[41].port$o[4].channel typename "\"ned.IdealChannel\""
par RGG.node[51].port$o[6].channel typename "\"ned.IdealChannel\""
par RGG.node[41].port$o[5].channel typename "\"ned.IdealChannel\""
par RGG.node[60].port$o[5].channel typename "\"ned.IdealChannel\""
par RGG.node[41].port$o[6].channel typename "\"ned.IdealChannel\""
par RGG.node[61].port$o[5].channel typename "\"ned.IdealChannel\""
par RGG.node[41].port$o[7].channel typename "\"ned.IdealChannel\""
par RGG.node[64].port$o[6].channel typename "\"ned.IdealChannel\""
par RGG.node[41].port$o[8].channel typename "\"ned.IdealChannel\""
par RGG.node[70].port$o[5].channel typename "\"ned.IdealChannel\""
par RGG.node[41].port$o[9].channel typename "\"ned.IdealChannel\""
par RGG.node[87].port$o[7].channel typename "\"ned.IdealChannel\""
par RGG.node[41].port$o[10].channel typename "\"ned.IdealChannel\""
par RGG.node[93].port$o[5].channel typename "\"ned.IdealChannel\""
par RGG.node[42].port$o[6].channel typename "\"ned.IdealChannel\""
par RGG.node[46].port$o[6].channel typename "\"ned.IdealChannel\""
par RGG.node[42].port$o[7].channel typename "\"ned.IdealChannel\""
par RGG.node[52].port$o[6].channel typename "\"ned.IdealChannel\""
par RGG.node[42].port$o[8].channel typename "\"ned.IdealChannel\""
par RGG.node[53].port$o[8].channel typename "\"ned.IdealChannel\""
par RGG.node[42].port$o[9].channel typename "\"ned.IdealChannel\""
par RGG.node[58].port$o[9].channel typename "\"ned.IdealChannel\""
par RGG.node[42].port$o[10].channel typename "\"ned.IdealChannel\""
par RGG.node[62].port$o[5].channel typename "\"ned.IdealChannel\""
par RGG.node[42].port$o[11].channel typename "\"ned.IdealChannel\""
par RGG.node[67].port$o[3].channel typename "\"ned.IdealChannel\""
par RGG.node[42].port$o[12].channel typename "\"ned.IdealChannel\""
par RGG.node[78].port$o[3].channel typename "\"ned.IdealChannel\""
par RGG.node[42].port$o[13].channel typename "\"ned.IdealChannel\""
par RGG.node[80].port$o[8].channel typename "\"ned.IdealChannel\""
par RGG.node[42].port$o[14].channel typename "\"ned.IdealChannel\""
par RGG.node[82].port$o[4].channel typename "\"ned.IdealChannel\""
par RGG.node[42].port$o[15].channel typename "\"ned.IdealChannel\""
par RGG.node[85].port$o[8].channel typename "\"ned.IdealChannel\""
par RGG.node[42].port$o[16].channel typename "\"ned.IdealChannel\""
par RGG.node[88].port$o[3].channel typename "\"ned.IdealChannel\""
par RGG.node[42].port$o[17].channel typename "\"ned.IdealChannel\""
par RGG.node[90].port$o[6].channel typename "\"ned.IdealChannel\""
par RGG.node[42].port$o[18].channel typename "\"ned.IdealChannel\""
par RGG.node[96].port$o[5].channel typename "\"ned.IdealChannel\""
par RGG.node[42].port$o[19].channel typename "\"ned.IdealChannel\""
par RGG.node[99].port$o[6].channel typename "\"ned.IdealChannel\""
par RGG.node[43].port$o[4].channel typename "\"ned.IdealChannel\""
par RGG.node[55].port$o[8].channel typename "\"ned.IdealChannel\""
par RGG.node[43].port$o[5].channel typename "\"ned.IdealChannel\""
par RGG.node[58].port$o[10].channel typename "\"ned.IdealChannel\""
par RGG.node[43].port$o[6].channel typename "\"ned.IdealChannel\""
par RGG.node[59].port$o[10].channel typename "\"ned.IdealChannel\""
par RGG.node[43].port$o[7].channel typename "\"ned.IdealChannel\""
par RGG.node[63].port$o[4].channel typename "\"ned.IdealChannel\""
par RGG.node[43].port$o[8].channel typename "\"ned.IdealChannel\""
par RGG.node[69].port$o[5].channel typename "\"ned.IdealChannel\""
par RGG.node[43].port$o[9].channel typename "\"ned.IdealChannel\""
par RGG.node[78].port$o[4].channel typename "\"ned.IdealChannel\""
par RGG.node[44].port$o[4].channel typename "\"ned.IdealChannel\""
par RGG.node[49].port$o[9].channel typename "\"ned.IdealChannel\""
par RGG.node[44].port$o[5].channel typename "\"ned.IdealChannel\""
par RGG.node[50].port$o[5].channel typename "\"ned.IdealChannel\""
par RGG.node[44].port$o[6].channel typename "\"ned.IdealChannel\""
par RGG.node[66].port$o[11].channel typename "\"ned.IdealChannel\""
par RGG.node[44].port$o[7].channel typename "\"ned.IdealChannel\""
par RGG.node[74].port$o[9].channel typename "\"ned.IdealChannel\""
par RGG.node[44].port$o[8].channel typename "\"ned.IdealChannel\""
par RGG.node[76].port$o[11].channel typename "\"ned.IdealChannel\""
par RGG.node[44].port$o[9].channel typename "\"ned.IdealChannel\""
par RGG.node[95].port$o[10].channel typename "\"ned.IdealChannel\""
par RGG.node[44].port$o[10].channel typename "\"ned.IdealChannel\""
par RGG.node[97].port$o[11].channel typename "\"ned.IdealChannel\""
par RGG.node[45].port$o[4].channel typename "\"ned.IdealChannel\""
par RGG.node[57].port$o[12].channel typename "\"ned.IdealChannel\""
par RGG.node[45].port$o[5].channel typename "\"ned.IdealChannel\""
par RGG.node[84].port$o[8].channel typename "\"ned.IdealChannel\""
par RGG.node[46].port$o[7].channel typename "\"ned.IdealChannel\""
par RGG.node[52].port$o[7].channel typename "\"ned.IdealChannel\""
par RGG.node[46].port$o[8].channel typename "\"ned.IdealChannel\""
par RGG.node[53].port$o[9].channel typename "\"ned.IdealChannel\""
par RGG.node[46].port$o[9].channel typename "\"ned.IdealChannel\""
par RGG.node[62].port$o[6].channel typename "\"ned.IdealChannel\""
par RGG.node[46].port$o[10].channel typename "\"ned.IdealChannel\""
par RGG.node[75].port$o[8].channel typename "\"ned.IdealChannel\""
par RGG.node[46].port$o[11].channel typename "\"ned.IdealChannel\""
par RGG.node[80].port$o[9].channel typename "\"ned.IdealChannel\""
par RGG.node[46].port$o[12].channel typename "\"ned.IdealChannel\""
par RGG.node[82].port$o[5].channel typename "\"ned.IdealChannel\""
par RGG.node[46].port$o[13].channel typename "\"ned.IdealChannel\""
par RGG.node[85].port$o[9].channel typename "\"ned.IdealChannel\""
par RGG.node[46].port$o[14].channel typename "\"ned.IdealChannel\""
par RGG.node[90].port$o[7].channel typename "\"ned.IdealChannel\""
par RGG.node[46].port$o[15].channel typename "\"ned.IdealChannel\""
par RGG.node[96].port$o[6].channel typename "\"ned.IdealChannel\""
par RGG.node[46].port$o[16].channel typename "\"ned.IdealChannel\""
par RGG.node[99].port$o[7].channel typename "\"ned.IdealChannel\""
par RGG.node[47].port$o[6].channel typename "\"ned.IdealChannel\""
par RGG.node[59].port$o[11].channel typename "\"ned.IdealChannel\""
par RGG.node[47].port$o[7].channel typename "\"ned.IdealChannel\""
par RGG.node[65].port$o[7].channel typename "\"ned.IdealChannel\""
par RGG.node[47].port$o[8].channel typename "\"ned.IdealChannel\""
par RGG.node[72].port$o[5].channel typename "\"ned.IdealChannel\""
par RGG.node[47].port$o[9].channel typename "\"ned.IdealChannel\""
par RGG.node[79].port$o[3].channel typename "\"ned.IdealChannel\""
par RGG.node[47].port$o[10].channel typename "\"ned.IdealChannel\""
par RGG.node[81].port$o[3].channel typename "\"ned.IdealChannel\""
par RGG.node[47].port$o[11].channel typename "\"ned.IdealChannel\""
par RGG.node[83].port$o[6].channel typename "\"ned.IdealChannel\""
par RGG.node[47].port$o[12].channel typename "\"ned.IdealChannel\""
par RGG.node[89].port$o[7].channel typename "\"ned.IdealChannel\""
par RGG.node[47].port$o[13].channel typename "\"ned.IdealChannel\""
par RGG.node[92].port$o[6].channel typename "\"ned.IdealChannel\""
par RGG.node[48].port$o[7].channel typename "\"ned.IdealChannel\""
par RGG.node[54].port$o[8].channel typename "\"ned.IdealChannel\""
par RGG.node[48].port$o[8].channel typename "\"ned.IdealChannel\""
par RGG.node[56].port$o[6].channel typename "\"ned.IdealChannel\""
par RGG.node[48].port$o[9].channel typename "\"ned.IdealChannel\""
par RGG.node[67].port$o[4].channel typename "\"ned.IdealChannel\""
par RGG.node[48].port$o[10].channel typename "\"ned.IdealChannel\""
par RGG.node[69].port$o[6].channel typename "\"ned.IdealChannel\""
par RGG.node[48].port$o[11].channel typename "\"ned.IdealChannel\""
par RGG.node[72].port$o[6].channel typename "\"ned.IdealChannel\""
par RGG.node[48].port$o[12].channel typename "\"ned.IdealChannel\""
par RGG.node[73].port$o[8].channel typename "\"ned.IdealChannel\""
par RGG.node[48].port$o[13].channel typename "\"ned.IdealChannel\""
par RGG.node[78].port$o[5].channel typename "\"ned.IdealChannel\""
par RGG.node[48].port$o[14].channel typename "\"ned.IdealChannel\""
par RGG.node[88].port$o[4].channel typename "\"ned.IdealChannel\""
par RGG.node[48].port$o[15].channel typename "\"ned.IdealChannel\""
par RGG.node[98].port$o[7].channel typename "\"ned.IdealChannel\""
par RGG.node[49].port$o[10].channel typename "\"ned.IdealChannel\""
par RGG.node[66].port$o[12].channel typename "\"ned.IdealChannel\""
par RGG.node[49].port$o[11].channel typename "\"ned.IdealChannel\""
par RGG.node[74].port$o[10].channel typename "\"ned.IdealChannel\""
par RGG.node[49].port$o[12].channel typename "\"ned.IdealChannel\""
par RGG.node[76].port$o[12].channel typename "\"ned.IdealChannel\""
par RGG.node[49].port$o[13].channel typename "\"ned.IdealChannel\""
par RGG.node[86].port$o[9].channel typename "\"ned.IdealChannel\""
par RGG.node[49].port$o[14].channel typename "\"ned.IdealChannel\""
par RGG.node[94].port$o[8].channel typename "\"ned.IdealChannel\""
par RGG.node[49].port$o[15].channel typename "\"ned.IdealChannel\""
par RGG.node[95].port$o[11].channel typename "\"ned.IdealChannel\""
par RGG.node[49].port$o[16].channel typename "\"ned.IdealChannel\""
par RGG.node[97].port$o[12].channel typename "\"ned.IdealChannel\""
par RGG.node[51].port$o[7].channel typename "\"ned.IdealChannel\""
par RGG.node[60].port$o[6].channel typename "\"ned.IdealChannel\""
par RGG.node[51].port$o[8].channel typename "\"ned.IdealChannel\""
par RGG.node[61].port$o[6].channel typename "\"ned.IdealChannel\""
par RGG.node[51].port$o[9].channel typename "\"ned.IdealChannel\""
par RGG.node[62].port$o[7].channel typename "\"ned.IdealChannel\""
par RGG.node[51].port$o[10].channel typename "\"ned.IdealChannel\""
par RGG.node[64].port$o[7].channel typename "\"ned.IdealChannel\""
par RGG.node[51].port$o[11].channel typename "\"ned.IdealChannel\""
par RGG.node[67].port$o[5].channel typename "\"ned.IdealChannel\""
par RGG.node[51].port$o[12].channel typename "\"ned.IdealChannel\""
par RGG.node[70].port$o[6].channel typename "\"ned.IdealChannel\""
par RGG.node[51].port$o[13].channel typename "\"ned.IdealChannel\""
par RGG.node[73].port$o[9].channel typename "\"ned.IdealChannel\""
par RGG.node[51].port$o[14].channel typename "\"ned.IdealChannel\""
par RGG.node[82].port$o[6].channel typename "\"ned.IdealChannel\""
par RGG.node[51].port$o[15].channel typename "\"ned.IdealChannel\""
par RGG.node[87].port$o[8].channel typename "\"ned.IdealChannel\""
par RGG.node[51].port$o[16].channel typename "\"ned.IdealChannel\""
par RGG.node[88].port$o[5].channel typename "\"ned.IdealChannel\""
par RGG.node[51].port$o[17].channel typename "\"ned.IdealChannel\""
par RGG.node[93].port$o[6].channel typename "\"ned.IdealChannel\""
par RGG.node[51].port$o[18].channel typename "\"ned.IdealChannel\""
par RGG.node[96].port$o[7].channel typename "\"ned.IdealChannel\""
par RGG.node[51].port$o[19].channel typename "\"ned.IdealChannel\""
par RGG.node[98].port$o[8].channel typename "\"ned.IdealChannel\""
par RGG.node[51].port$o[20].channel typename "\"ned.IdealChannel\""
par RGG.node[99].port$o[8].channel typename "\"ned.IdealChannel\""
par RGG.node[52].port$o[8].channel typename "\"ned.IdealChannel\""
par RGG.node[53].port$o[10].channel typename "\"ned.IdealChannel\""
par RGG.node[52].port$o[9].channel typename "\"ned.IdealChannel\""
par RGG.node[58].port$o[11].channel typename "\"ned.IdealChannel\""
par RGG.node[52].port$o[10].channel typename "\"ned.IdealChannel\""
[...]
par RGG.node[72].port$o[10].channel typename "\"ned.IdealChannel\""
par RGG.node[92].port$o[10].channel typename "\"ned.IdealChannel\""
par RGG.node[73].port$o[18].channel typename "\"ned.IdealChannel\""
par RGG.node[82].port$o[13].channel typename "\"ned.IdealChannel\""
par RGG.node[73].port$o[19].channel typename "\"ned.IdealChannel\""
par RGG.node[87].port$o[16].channel typename "\"ned.IdealChannel\""
par RGG.node[73].port$o[20].channel typename "\"ned.IdealChannel\""
par RGG.node[88].port$o[13].channel typename "\"ned.IdealChannel\""
par RGG.node[73].port$o[21].channel typename "\"ned.IdealChannel\""
par RGG.node[93].port$o[11].channel typename "\"ned.IdealChannel\""
par RGG.node[73].port$o[22].channel typename "\"ned.IdealChannel\""
par RGG.node[96].port$o[13].channel typename "\"ned.IdealChannel\""
par RGG.node[73].port$o[23].channel typename "\"ned.IdealChannel\""
par RGG.node[98].port$o[16].channel typename "\"ned.IdealChannel\""
par RGG.node[73].port$o[24].channel typename "\"ned.IdealChannel\""
par RGG.node[99].port$o[15].channel typename "\"ned.IdealChannel\""
par RGG.node[74].port$o[12].channel typename "\"ned.IdealChannel\""
par RGG.node[76].port$o[14].channel typename "\"ned.IdealChannel\""
par RGG.node[74].port$o[13].channel typename "\"ned.IdealChannel\""
par RGG.node[86].port$o[13].channel typename "\"ned.IdealChannel\""
par RGG.node[74].port$o[14].channel typename "\"ned.IdealChannel\""
par RGG.node[94].port$o[11].channel typename "\"ned.IdealChannel\""
par RGG.node[74].port$o[15].channel typename "\"ned.IdealChannel\""
par RGG.node[95].port$o[13].channel typename "\"ned.IdealChannel\""
par RGG.node[74].port$o[16].channel typename "\"ned.IdealChannel\""
par RGG.node[97].port$o[15].channel typename "\"ned.IdealChannel\""
par RGG.node[75].port$o[11].channel typename "\"ned.IdealChannel\""
par RGG.node[80].port$o[14].channel typename "\"ned.IdealChannel\""
par RGG.node[75].port$o[12].channel typename "\"ned.IdealChannel\""
par RGG.node[85].port$o[14].channel typename "\"ned.IdealChannel\""
par RGG.node[76].port$o[15].channel typename "\"ned.IdealChannel\""
par RGG.node[86].port$o[14].channel typename "\"ned.IdealChannel\""
par RGG.node[76].port$o[16].channel typename "\"ned.IdealChannel\""
par RGG.node[94].port$o[12].channel typename "\"ned.IdealChannel\""
par RGG.node[76].port$o[17].channel typename "\"ned.IdealChannel\""
par RGG.node[95].port$o[14].channel typename "\"ned.IdealChannel\""
par RGG.node[76].port$o[18].channel typename "\"ned.IdealChannel\""
par RGG.node[97].port$o[16].channel typename "\"ned.IdealChannel\""
par RGG.node[77].port$o[9].channel typename "\"ned.IdealChannel\""
par RGG.node[89].port$o[12].channel typename "\"ned.IdealChannel\""
par RGG.node[77].port$o[10].channel typename "\"ned.IdealChannel\""
par RGG.node[91].port$o[10].channel typename "\"ned.IdealChannel\""
par RGG.node[78].port$o[12].channel typename "\"ned.IdealChannel\""
par RGG.node[88].port$o[14].channel typename "\"ned.IdealChannel\""
par RGG.node[78].port$o[13].channel typename "\"ned.IdealChannel\""
par RGG.node[90].port$o[13].channel typename "\"ned.IdealChannel\""
par RGG.node[78].port$o[14].channel typename "\"ned.IdealChannel\""
par RGG.node[96].port$o[14].channel typename "\"ned.IdealChannel\""
par RGG.node[78].port$o[15].channel typename "\"ned.IdealChannel\""
par RGG.node[99].port$o[16].channel typename "\"ned.IdealChannel\""
par RGG.node[79].port$o[5].channel typename "\"ned.IdealChannel\""
par RGG.node[81].port$o[4].channel typename "\"ned.IdealChannel\""
par RGG.node[79].port$o[6].channel typename "\"ned.IdealChannel\""
par RGG.node[83].port$o[10].channel typename "\"ned.IdealChannel\""
par RGG.node[79].port$o[7].channel typename "\"ned.IdealChannel\""
par RGG.node[92].port$o[11].channel typename "\"ned.IdealChannel\""
par RGG.node[80].port$o[15].channel typename "\"ned.IdealChannel\""
par RGG.node[85].port$o[15].channel typename "\"ned.IdealChannel\""
par RGG.node[80].port$o[16].channel typename "\"ned.IdealChannel\""
par RGG.node[90].port$o[14].channel typename "\"ned.IdealChannel\""
par RGG.node[80].port$o[17].channel typename "\"ned.IdealChannel\""
par RGG.node[99].port$o[17].channel typename "\"ned.IdealChannel\""
par RGG.node[81].port$o[5].channel typename "\"ned.IdealChannel\""
par RGG.node[83].port$o[11].channel typename "\"ned.IdealChannel\""
par RGG.node[82].port$o[14].channel typename "\"ned.IdealChannel\""
par RGG.node[87].port$o[17].channel typename "\"ned.IdealChannel\""
par RGG.node[82].port$o[15].channel typename "\"ned.IdealChannel\""
par RGG.node[88].port$o[15].channel typename "\"ned.IdealChannel\""
par RGG.node[82].port$o[16].channel typename "\"ned.IdealChannel\""
par RGG.node[90].port$o[15].channel typename "\"ned.IdealChannel\""
par RGG.node[82].port$o[17].channel typename "\"ned.IdealChannel\""
par RGG.node[93].port$o[12].channel typename "\"ned.IdealChannel\""
par RGG.node[82].port$o[18].channel typename "\"ned.IdealChannel\""
par RGG.node[96].port$o[15].channel typename "\"ned.IdealChannel\""
par RGG.node[82].port$o[19].channel typename "\"ned.IdealChannel\""
par RGG.node[99].port$o[18].channel typename "\"ned.IdealChannel\""
par RGG.node[83].port$o[12].channel typename "\"ned.IdealChannel\""
par RGG.node[89].port$o[13].channel typename "\"ned.IdealChannel\""
par RGG.node[83].port$o[13].channel typename "\"ned.IdealChannel\""
par RGG.node[92].port$o[12].channel typename "\"ned.IdealChannel\""
par RGG.node[84].port$o[11].channel typename "\"ned.IdealChannel\""
par RGG.node[85].port$o[16].channel typename "\"ned.IdealChannel\""
par RGG.node[84].port$o[12].channel typename "\"ned.IdealChannel\""
par RGG.node[86].port$o[15].channel typename "\"ned.IdealChannel\""
par RGG.node[84].port$o[13].channel typename "\"ned.IdealChannel\""
par RGG.node[94].port$o[13].channel typename "\"ned.IdealChannel\""
par RGG.node[84].port$o[14].channel typename "\"ned.IdealChannel\""
par RGG.node[97].port$o[17].channel typename "\"ned.IdealChannel\""
par RGG.node[85].port$o[17].channel typename "\"ned.IdealChannel\""
par RGG.node[86].port$o[16].channel typename "\"ned.IdealChannel\""
par RGG.node[85].port$o[18].channel typename "\"ned.IdealChannel\""
par RGG.node[90].port$o[16].channel typename "\"ned.IdealChannel\""
par RGG.node[85].port$o[19].channel typename "\"ned.IdealChannel\""
par RGG.node[99].port$o[19].channel typename "\"ned.IdealChannel\""
par RGG.node[86].port$o[17].channel typename "\"ned.IdealChannel\""
par RGG.node[94].port$o[14].channel typename "\"ned.IdealChannel\""
par RGG.node[86].port$o[18].channel typename "\"ned.IdealChannel\""
par RGG.node[95].port$o[15].channel typename "\"ned.IdealChannel\""
par RGG.node[86].port$o[19].channel typename "\"ned.IdealChannel\""
par RGG.node[97].port$o[18].channel typename "\"ned.IdealChannel\""
par RGG.node[87].port$o[18].channel typename "\"ned.IdealChannel\""
par RGG.node[88].port$o[16].channel typename "\"ned.IdealChannel\""
par RGG.node[87].port$o[19].channel typename "\"ned.IdealChannel\""
par RGG.node[93].port$o[13].channel typename "\"ned.IdealChannel\""
par RGG.node[87].port$o[20].channel typename "\"ned.IdealChannel\""
par RGG.node[96].port$o[16].channel typename "\"ned.IdealChannel\""
par RGG.node[87].port$o[21].channel typename "\"ned.IdealChannel\""
par RGG.node[98].port$o[17].channel typename "\"ned.IdealChannel\""
par RGG.node[88].port$o[17].channel typename "\"ned.IdealChannel\""
par RGG.node[90].port$o[17].channel typename "\"ned.IdealChannel\""
par RGG.node[88].port$o[18].channel typename "\"ned.IdealChannel\""
par RGG.node[96].port$o[17].channel typename "\"ned.IdealChannel\""
par RGG.node[88].port$o[19].channel typename "\"ned.IdealChannel\""
par RGG.node[98].port$o[18].channel typename "\"ned.IdealChannel\""
par RGG.node[88].port$o[20].channel typename "\"ned.IdealChannel\""
par RGG.node[99].port$o[20].channel typename "\"ned.IdealChannel\""
par RGG.node[89].port$o[14].channel typename "\"ned.IdealChannel\""
par RGG.node[91].port$o[11].channel typename "\"ned.IdealChannel\""
par RGG.node[90].port$o[18].channel typename "\"ned.IdealChannel\""
par RGG.node[96].port$o[18].channel typename "\"ned.IdealChannel\""
par RGG.node[90].port$o[19].channel typename "\"ned.IdealChannel\""
par RGG.node[99].port$o[21].channel typename "\"ned.IdealChannel\""
par RGG.node[93].port$o[14].channel typename "\"ned.IdealChannel\""
par RGG.node[98].port$o[19].channel typename "\"ned.IdealChannel\""
par RGG.node[94].port$o[15].channel typename "\"ned.IdealChannel\""
par RGG.node[95].port$o[16].channel typename "\"ned.IdealChannel\""
par RGG.node[94].port$o[16].channel typename "\"ned.IdealChannel\""
par RGG.node[97].port$o[19].channel typename "\"ned.IdealChannel\""
par RGG.node[95].port$o[17].channel typename "\"ned.IdealChannel\""
par RGG.node[97].port$o[20].channel typename "\"ned.IdealChannel\""
par RGG.node[96].port$o[19].channel typename "\"ned.IdealChannel\""
par RGG.node[99].port$o[22].channel typename "\"ned.IdealChannel\""
par RGG.node[0] typename "\"randomw.Node\""
par RGG.node[0] xCor 0.375058
par RGG.node[0] yCor 0.0407394
par RGG.node[1] typename "\"randomw.Node\""
par RGG.node[1] xCor 0.673826
par RGG.node[1] yCor 0.262447
par RGG.node[2] typename "\"randomw.Node\""
par RGG.node[2] xCor 0.0739609
par RGG.node[2] yCor 0.827141
par RGG.node[3] typename "\"randomw.Node\""
par RGG.node[3] xCor 0.107966
par RGG.node[3] yCor 0.922811
par RGG.node[4] typename "\"randomw.Node\""
par RGG.node[4] xCor 0.147617
par RGG.node[4] yCor 0.331288
par RGG.node[5] typename "\"randomw.Node\""
par RGG.node[5] xCor 0.858764
par RGG.node[5] yCor 0.906095
par RGG.node[6] typename "\"randomw.Node\""
par RGG.node[6] xCor 0.994257
par RGG.node[6] yCor 0.432159
par RGG.node[7] typename "\"randomw.Node\""
par RGG.node[7] xCor 0.784798
par RGG.node[7] yCor 0.891094
par RGG.node[8] typename "\"randomw.Node\""
par RGG.node[8] xCor 0.169199
par RGG.node[8] yCor 0.931418
par RGG.node[9] typename "\"randomw.Node\""
par RGG.node[9] xCor 0.0804452
par RGG.node[9] yCor 0.184773
par RGG.node[10] typename "\"randomw.Node\""
par RGG.node[10] xCor 0.962984
par RGG.node[10] yCor 0.0544807
par RGG.node[11] typename "\"randomw.Node\""
par RGG.node[11] xCor 0.168779
par RGG.node[11] yCor 0.747833
par RGG.node[12] typename "\"randomw.Node\""
par RGG.node[12] xCor 0.87431
par RGG.node[12] yCor 0.947414
par RGG.node[13] typename "\"randomw.Node\""
par RGG.node[13] xCor 0.398312
par RGG.node[13] yCor 0.0709143
par RGG.node[14] typename "\"randomw.Node\""
par RGG.node[14] xCor 0.797423
par RGG.node[14] yCor 0.412771
par RGG.node[15] typename "\"randomw.Node\""
par RGG.node[15] xCor 0.863352
par RGG.node[15] yCor 0.504966
par RGG.node[16] typename "\"randomw.Node\""
par RGG.node[16] xCor 0.276088
par RGG.node[16] yCor 0.34804
par RGG.node[17] typename "\"randomw.Node\""
par RGG.node[17] xCor 0.714501
par RGG.node[17] yCor 0.0956106
par RGG.node[18] typename "\"randomw.Node\""
par RGG.node[18] xCor 0.792616
par RGG.node[18] yCor 0.770696
par RGG.node[19] typename "\"randomw.Node\""
par RGG.node[19] xCor 0.670566
par RGG.node[19] yCor 0.863467
par RGG.node[20] typename "\"randomw.Node\""
par RGG.node[20] xCor 0.412229
par RGG.node[20] yCor 0.485313
par RGG.node[21] typename "\"randomw.Node\""
par RGG.node[21] xCor 0.949338
par RGG.node[21] yCor 0.362057
par RGG.node[22] typename "\"randomw.Node\""
par RGG.node[22] xCor 0.187193
par RGG.node[22] yCor 0.0448578
par RGG.node[23] typename "\"randomw.Node\""
par RGG.node[23] xCor 0.81228
par RGG.node[23] yCor 0.50784
par RGG.node[24] typename "\"randomw.Node\""
par RGG.node[24] xCor 0.62649
par RGG.node[24] yCor 0.869939
par RGG.node[25] typename "\"randomw.Node\""
par RGG.node[25] xCor 0.528823
par RGG.node[25] yCor 0.0933459
par RGG.node[26] typename "\"randomw.Node\""
par RGG.node[26] xCor 0.253483
par RGG.node[26] yCor 0.461689
par RGG.node[27] typename "\"randomw.Node\""
par RGG.node[27] xCor 0.675062
par RGG.node[27] yCor 0.316543
par RGG.node[28] typename "\"randomw.Node\""
par RGG.node[28] xCor 0.644395
par RGG.node[28] yCor 0.238269
par RGG.node[29] typename "\"randomw.Node\""
par RGG.node[29] xCor 0.640422
par RGG.node[29] yCor 0.0274299
par RGG.node[30] typename "\"randomw.Node\""
par RGG.node[30] xCor 0.807244
par RGG.node[30] yCor 0.544336
par RGG.node[31] typename "\"randomw.Node\""
par RGG.node[31] xCor 0.387859
par RGG.node[31] yCor 0.261318
par RGG.node[32] typename "\"randomw.Node\""
par RGG.node[32] xCor 0.671281
par RGG.node[32] yCor 0.834967
par RGG.node[33] typename "\"randomw.Node\""
par RGG.node[33] xCor 0.393051
par RGG.node[33] yCor 0.781539
par RGG.node[34] typename "\"randomw.Node\""
par RGG.node[34] xCor 0.41858
par RGG.node[34] yCor 0.623167
par RGG.node[35] typename "\"randomw.Node\""
par RGG.node[35] xCor 0.488576
par RGG.node[35] yCor 0.152714
par RGG.node[36] typename "\"randomw.Node\""
par RGG.node[36] xCor 0.079107
par RGG.node[36] yCor 0.630083
par RGG.node[37] typename "\"randomw.Node\""
par RGG.node[37] xCor 0.771726
par RGG.node[37] yCor 0.459089
par RGG.node[38] typename "\"randomw.Node\""
par RGG.node[38] xCor 0.593481
par RGG.node[38] yCor 0.912466
par RGG.node[39] typename "\"randomw.Node\""
par RGG.node[39] xCor 0.0698774
par RGG.node[39] yCor 0.779628
par RGG.node[40] typename "\"randomw.Node\""
par RGG.node[40] xCor 0.74425
par RGG.node[40] yCor 0.618031
par RGG.node[41] typename "\"randomw.Node\""
par RGG.node[41] xCor 0.0208656
par RGG.node[41] yCor 0.992524
par RGG.node[42] typename "\"randomw.Node\""
par RGG.node[42] xCor 0.499639
par RGG.node[42] yCor 0.806077
par RGG.node[43] typename "\"randomw.Node\""
par RGG.node[43] xCor 0.50471
par RGG.node[43] yCor 0.479875
par RGG.node[44] typename "\"randomw.Node\""
par RGG.node[44] xCor 0.931687
par RGG.node[44] yCor 0.253968
par RGG.node[45] typename "\"randomw.Node\""
par RGG.node[45] xCor 0.949754
par RGG.node[45] yCor 0.778262
par RGG.node[46] typename "\"randomw.Node\""
par RGG.node[46] xCor 0.553459
par RGG.node[46] yCor 0.941694
par RGG.node[47] typename "\"randomw.Node\""
par RGG.node[47] xCor 0.233726
par RGG.node[47] yCor 0.272791
par RGG.node[48] typename "\"randomw.Node\""
par RGG.node[48] xCor 0.232396
par RGG.node[48] yCor 0.604736
par RGG.node[49] typename "\"randomw.Node\""
par RGG.node[49] xCor 0.906113
par RGG.node[49] yCor 0.351508
par RGG.node[50] typename "\"randomw.Node\""
par RGG.node[50] xCor 0.796867
par RGG.node[50] yCor 0.0847751
par RGG.node[51] typename "\"randomw.Node\""
par RGG.node[51] xCor 0.256387
par RGG.node[51] yCor 0.93917
par RGG.node[52] typename "\"randomw.Node\""
par RGG.node[52] xCor 0.502546
par RGG.node[52] yCor 0.812676
par RGG.node[53] typename "\"randomw.Node\""
par RGG.node[53] xCor 0.669383
par RGG.node[53] yCor 0.914565
par RGG.node[54] typename "\"randomw.Node\""
par RGG.node[54] xCor 0.17487
par RGG.node[54] yCor 0.691244
par RGG.node[55] typename "\"randomw.Node\""
par RGG.node[55] xCor 0.571794
par RGG.node[55] yCor 0.367827
par RGG.node[56] typename "\"randomw.Node\""
par RGG.node[56] xCor 0.172771
par RGG.node[56] yCor 0.522528
par RGG.node[57] typename "\"randomw.Node\""
par RGG.node[57] xCor 0.754971
par RGG.node[57] yCor 0.729137
par RGG.node[58] typename "\"randomw.Node\""
par RGG.node[58] xCor 0.626699
par RGG.node[58] yCor 0.650203
par RGG.node[59] typename "\"randomw.Node\""
par RGG.node[59] xCor 0.457694
par RGG.node[59] yCor 0.273833
par RGG.node[60] typename "\"randomw.Node\""
par RGG.node[60] xCor 0.113595
par RGG.node[60] yCor 0.919994
par RGG.node[61] typename "\"randomw.Node\""
par RGG.node[61] xCor 0.0648528
par RGG.node[61] yCor 0.924133
par RGG.node[62] typename "\"randomw.Node\""
par RGG.node[62] xCor 0.39856
par RGG.node[62] yCor 0.857356
par RGG.node[63] typename "\"randomw.Node\""
par RGG.node[63] xCor 0.532685
par RGG.node[63] yCor 0.479221
par RGG.node[64] typename "\"randomw.Node\""
par RGG.node[64] xCor 0.241783
par RGG.node[64] yCor 0.93501
par RGG.node[65] typename "\"randomw.Node\""
par RGG.node[65] xCor 0.411171
par RGG.node[65] yCor 0.216946
par RGG.node[66] typename "\"randomw.Node\""
par RGG.node[66] xCor 0.814645
par RGG.node[66] yCor 0.401515
par RGG.node[67] typename "\"randomw.Node\""
par RGG.node[67] xCor 0.358409
par RGG.node[67] yCor 0.762191
par RGG.node[68] typename "\"randomw.Node\""
par RGG.node[68] xCor 0.506047
par RGG.node[68] yCor 0.0240927
par RGG.node[69] typename "\"randomw.Node\""
par RGG.node[69] xCor 0.37104
par RGG.node[69] yCor 0.558864
par RGG.node[70] typename "\"randomw.Node\""
par RGG.node[70] xCor 0.173712
par RGG.node[70] yCor 0.921171
par RGG.node[71] typename "\"randomw.Node\""
par RGG.node[71] xCor 0.513674
par RGG.node[71] yCor 0.0399663
par RGG.node[72] typename "\"randomw.Node\""
par RGG.node[72] xCor 0.0984851
par RGG.node[72] yCor 0.410992
par RGG.node[73] typename "\"randomw.Node\""
par RGG.node[73] xCor 0.216855
par RGG.node[73] yCor 0.760351
par RGG.node[74] typename "\"randomw.Node\""
par RGG.node[74] xCor 0.866312
par RGG.node[74] yCor 0.373603
par RGG.node[75] typename "\"randomw.Node\""
par RGG.node[75] xCor 0.7441
par RGG.node[75] yCor 0.978859
par RGG.node[76] typename "\"randomw.Node\""
par RGG.node[76] xCor 0.822458
par RGG.node[76] yCor 0.380643
par RGG.node[77] typename "\"randomw.Node\""
par RGG.node[77] xCor 0.301898
par RGG.node[77] yCor 0.0269125
par RGG.node[78] typename "\"randomw.Node\""
par RGG.node[78] xCor 0.459106
par RGG.node[78] yCor 0.64981
par RGG.node[79] typename "\"randomw.Node\""
par RGG.node[79] xCor 0.0587272
par RGG.node[79] yCor 0.219086
par RGG.node[80] typename "\"randomw.Node\""
par RGG.node[80] xCor 0.658189
par RGG.node[80] yCor 0.865707
par RGG.node[81] typename "\"randomw.Node\""
par RGG.node[81] xCor 0.0339552
par RGG.node[81] yCor 0.133691
par RGG.node[82] typename "\"randomw.Node\""
par RGG.node[82] xCor 0.319201
par RGG.node[82] yCor 0.933713
par RGG.node[83] typename "\"randomw.Node\""
par RGG.node[83] xCor 0.227582
par RGG.node[83] yCor 0.269479
par RGG.node[84] typename "\"randomw.Node\""
par RGG.node[84] xCor 0.879678
par RGG.node[84] yCor 0.640275
par RGG.node[85] typename "\"randomw.Node\""
par RGG.node[85] xCor 0.690725
par RGG.node[85] yCor 0.767315
par RGG.node[86] typename "\"randomw.Node\""
par RGG.node[86] xCor 0.800086
par RGG.node[86] yCor 0.557384
par RGG.node[87] typename "\"randomw.Node\""
par RGG.node[87] xCor 0.165637
par RGG.node[87] yCor 0.847138
par RGG.node[88] typename "\"randomw.Node\""
par RGG.node[88] xCor 0.356554
par RGG.node[88] yCor 0.753508
par RGG.node[89] typename "\"randomw.Node\""
par RGG.node[89] xCor 0.392381
par RGG.node[89] yCor 0.134332
par RGG.node[90] typename "\"randomw.Node\""
par RGG.node[90] xCor 0.481707
par RGG.node[90] yCor 0.786809
par RGG.node[91] typename "\"randomw.Node\""
par RGG.node[91] xCor 0.46355
par RGG.node[91] yCor 0.03187
par RGG.node[92] typename "\"randomw.Node\""
par RGG.node[92] xCor 0.220287
par RGG.node[92] yCor 0.343739
par RGG.node[93] typename "\"randomw.Node\""
par RGG.node[93] xCor 0.161615
par RGG.node[93] yCor 0.967883
par RGG.node[94] typename "\"randomw.Node\""
par RGG.node[94] xCor 0.840312
par RGG.node[94] yCor 0.513425
par RGG.node[95] typename "\"randomw.Node\""
par RGG.node[95] xCor 0.829174
par RGG.node[95] yCor 0.343491
par RGG.node[96] typename "\"randomw.Node\""
par RGG.node[96] xCor 0.401736
par RGG.node[96] yCor 0.850077
par RGG.node[97] typename "\"randomw.Node\""
par RGG.node[97] xCor 0.798105
par RGG.node[97] yCor 0.412181
par RGG.node[98] typename "\"randomw.Node\""
par RGG.node[98] xCor 0.170741
par RGG.node[98] yCor 0.72091
par RGG.node[99] typename "\"randomw.Node\""
par RGG.node[99] xCor 0.45468
par RGG.node[99] yCor 0.791581
par RGG.host typename "\"randomw.Host\""
par RGG.host startNodeIndex 1
attr mutable ""
par RGG.host startNode 11
par RGG typename "\"randomw.simulations.RGG\""
par RGG numNodes 100
par RGG rc 0.25
par RGG enableDuplication true
attr mutable ""
par RGG noBacktracking false
attr mutable ""
par RGG numWalkers 1

