file 64299 1756984399                                           
version 3
run General-273-20250904-14:13:19-15659
attr configname General
attr datetime 20250904-14:13:19
attr datetimef 20250904-141319
attr experiment General
attr inifile omnetpp.ini
attr iterationvars ""
attr iterationvarsd ""
attr iterationvarsf ""
attr measurement ""
attr network TaxiNetwork
attr processid 15659
attr repetition 273
attr replication #273
attr resultdir results
attr runnumber 273
attr seedset 273
config network TaxiNetwork
config seed-set 273
config num-rngs 1
config sim-time-limit 10s
config repeat 500
config *.numWalkers 1
config *.enableDuplication true
config *.rc 700
config **.node[0].xCor 2933
config **.node[0].yCor 2747
config **.node[1].xCor 2919
config **.node[1].yCor 2817
config **.node[2].xCor 2910
config **.node[2].yCor 2861
config **.node[3].xCor 2429
config **.node[3].yCor 2851
config **.node[4].xCor 2908
config **.node[4].yCor 2714
config **.node[5].xCor 2606
config **.node[5].yCor 2722
config **.node[6].xCor 2575
config **.node[6].yCor 2753
config **.node[7].xCor 2654
config **.node[7].yCor 2513
config **.node[8].xCor 2773
config **.node[8].yCor 2580
config **.node[9].xCor 3043
config **.node[9].yCor 2780
config **.node[10].xCor 3020
config **.node[10].yCor 2813
config **.node[11].xCor 2599
config **.node[11].yCor 2300
config **.node[12].xCor 2917
config **.node[12].yCor 2698
config **.node[13].xCor 2625
config **.node[13].yCor 2641
config **.node[14].xCor 2604
config **.node[14].yCor 2790
config **.node[15].xCor 2786
config **.node[15].yCor 3082
config **.node[16].xCor 2603
config **.node[16].yCor 2802
config **.node[17].xCor 2637
config **.node[17].yCor 2869
config **.node[18].xCor 2675
config **.node[18].yCor 2955
config **.node[19].xCor 2845
config **.node[19].yCor 2937
config **.node[20].xCor 2860
config **.node[20].yCor 2888
config **.node[21].xCor 2843
config **.node[21].yCor 4158
config **.node[22].xCor 2852
config **.node[22].yCor 4017
config **.node[23].xCor 2892
config **.node[23].yCor 4961
config **.node[24].xCor 2313
config **.node[24].yCor 3993
config **.node[25].xCor 2891
config **.node[25].yCor 4959
config **.node[26].xCor 2370
config **.node[26].yCor 4050
config **.node[27].xCor 2788
config **.node[27].yCor 3958
config **.node[28].xCor 2819
config **.node[28].yCor 4428
config **.node[29].xCor 2790
config **.node[29].yCor 3761
config **.node[30].xCor 2809
config **.node[30].yCor 2908
config **.node[31].xCor 2919
config **.node[31].yCor 3575
config **.node[32].xCor 2946
config **.node[32].yCor 3466
config **.node[33].xCor 2911
config **.node[33].yCor 3453
config **.node[34].xCor 2370
config **.node[34].yCor 3656
config **.node[35].xCor 2438
config **.node[35].yCor 3738
config **.node[36].xCor 2737
config **.node[36].yCor 3570
config **.node[37].xCor 2921
config **.node[37].yCor 3698
config **.node[38].xCor 2907
config **.node[38].yCor 5197
config **.node[39].xCor 2860
config **.node[39].yCor 3852
config **.node[40].xCor 2927
config **.node[40].yCor 3684
config **.node[41].xCor 3023
config **.node[41].yCor 5313
config **.node[42].xCor 3220
config **.node[42].yCor 5811
config **.node[43].xCor 3432
config **.node[43].yCor 5715
config **.node[44].xCor 2754
config **.node[44].yCor 2463
config **.node[45].xCor 2646
config **.node[45].yCor 2673
config **.node[46].xCor 3051
config **.node[46].yCor 2792
config **.node[47].xCor 1666
config **.node[47].yCor 3697
config **.node[48].xCor 1662
config **.node[48].yCor 3694
config **.node[49].xCor 1664
config **.node[49].yCor 3667
config **.node[50].xCor 1660
config **.node[50].yCor 3664
config **.node[51].xCor 1710
config **.node[51].yCor 3573
config **.node[52].xCor 2082
config **.node[52].yCor 2650
config **.node[53].xCor 2086
config **.node[53].yCor 2657
config **.node[54].xCor 2257
config **.node[54].yCor 3232
config **.node[55].xCor 2258
config **.node[55].yCor 3225
config **.node[56].xCor 1926
config **.node[56].yCor 2570
config **.node[57].xCor 1926
config **.node[57].yCor 2576
config **.node[58].xCor 2104
config **.node[58].yCor 1758
config **.node[59].xCor 1957
config **.node[59].yCor 1826
config **.node[60].xCor 3473
config **.node[60].yCor 1523
config **.node[61].xCor 3335
config **.node[61].yCor 1726
config **.node[62].xCor 3478
config **.node[62].yCor 1517
config **.node[63].xCor 3386
config **.node[63].yCor 2119
config **.node[64].xCor 3474
config **.node[64].yCor 1762
config **.node[65].xCor 3797
config **.node[65].yCor 2099
config **.node[66].xCor 3642
config **.node[66].yCor 2136
config **.node[67].xCor 3481
config **.node[67].yCor 2334
config **.node[68].xCor 3088
config **.node[68].yCor 1505
config **.node[69].xCor 3037
config **.node[69].yCor 1693
config **.node[70].xCor 3026
config **.node[70].yCor 1700
config **.node[71].xCor 3019
config **.node[71].yCor 669
config **.node[72].xCor 3513
config **.node[72].yCor 1358
config **.node[73].xCor 3545
config **.node[73].yCor 1230
config **.node[74].xCor 4228
config **.node[74].yCor 4220
config **.node[75].xCor 3379
config **.node[75].yCor 1207
config **.node[76].xCor 3596
config **.node[76].yCor 963
config **.node[77].xCor 3637
config **.node[77].yCor 1188
config **.node[78].xCor 3759
config **.node[78].yCor 1030
config **.node[79].xCor 2918
config **.node[79].yCor 1455
config **.node[80].xCor 2711
config **.node[80].yCor 1297
config **.node[81].xCor 439
config **.node[81].yCor 1623
config **.node[82].xCor 2857
config **.node[82].yCor 3581
config **.node[83].xCor 2858
config **.node[83].yCor 3584
config **.node[84].xCor 2999
config **.node[84].yCor 2636
config **.node[85].xCor 2905
config **.node[85].yCor 2778
config **.node[86].xCor 2653
config **.node[86].yCor 2845
config **.node[87].xCor 2864
config **.node[87].yCor 2836
config **.node[88].xCor 2426
config **.node[88].yCor 2892
config **.node[89].xCor 2964
config **.node[89].yCor 2804
config **.node[90].xCor 2586
config **.node[90].yCor 3135
config **.node[91].xCor 2864
config **.node[91].yCor 2980
config **.node[92].xCor 2527
config **.node[92].yCor 3219
config **.node[93].xCor 2863
config **.node[93].yCor 3142
config **.node[94].xCor 2485
config **.node[94].yCor 3269
config **.node[95].xCor 2653
config **.node[95].yCor 1065
config **.node[96].xCor 4062
config **.node[96].yCor 400
config **.node[97].xCor 5762
config **.node[97].yCor 3023
config **.node[98].xCor 1414
config **.node[98].yCor 3461
config **.node[99].xCor 2911
config **.node[99].yCor 1737
config **.node[100].xCor 2595
config **.node[100].yCor 2299
config **.node[101].xCor 2702
config **.node[101].yCor 3419
config **.node[102].xCor 2813
config **.node[102].yCor 3307
config **.node[103].xCor 2638
config **.node[103].yCor 2258
config **.node[104].xCor 2590
config **.node[104].yCor 3125
config **.node[105].xCor 1856
config **.node[105].yCor 2990
config **.node[106].xCor 1894
config **.node[106].yCor 2239
config **.node[107].xCor 383
config **.node[107].yCor 1251
config **.node[108].xCor 3447
config **.node[108].yCor 5489
config **.node[109].xCor 3450
config **.node[109].yCor 5697
config **.node[110].xCor 2719
config **.node[110].yCor 1920
config **.node[111].xCor 2085
config **.node[111].yCor 2389
config **.node[112].xCor 1910
config **.node[112].yCor 2548
config **.node[113].xCor 2069
config **.node[113].yCor 2050
config **.node[114].xCor 2184
config **.node[114].yCor 2209
config **.node[115].xCor 2278
config **.node[115].yCor 2390
config **.node[116].xCor 2249
config **.node[116].yCor 2299
config **.node[117].xCor 2356
config **.node[117].yCor 2303
config **.node[118].xCor 2192
config **.node[118].yCor 2475
config **.node[119].xCor 1720
config **.node[119].yCor 2911
config **.node[120].xCor 2400
config **.node[120].yCor 2887
config **.node[121].xCor 3344
config **.node[121].yCor 1890
config **.node[122].xCor 3136
config **.node[122].yCor 2418
config **.node[123].xCor 3243
config **.node[123].yCor 2525
config **.node[124].xCor 2396
config **.node[124].yCor 1267
config **.node[125].xCor 467
config **.node[125].yCor 1875
config **.node[126].xCor 3506
config **.node[126].yCor 1221
config **.node[127].xCor 1034
config **.node[127].yCor 1474
config **.node[128].xCor 2908
config **.node[128].yCor 1784
config **.node[129].xCor 2876
config **.node[129].yCor 1761
config **.node[130].xCor 2849
config **.node[130].yCor 1795
config **.node[131].xCor 3029
config **.node[131].yCor 1859
config **.node[132].xCor 2924
config **.node[132].yCor 1848
config **.node[133].xCor 3493
config **.node[133].yCor 1559
config **.node[134].xCor 2760
config **.node[134].yCor 1761
config **.node[135].xCor 1644
config **.node[135].yCor 3755
config **.node[136].xCor 1463
config **.node[136].yCor 3432
config **.node[137].xCor 2595
config **.node[137].yCor 2849
config **.node[138].xCor 2581
config **.node[138].yCor 2867
config **.node[139].xCor 2524
config **.node[139].yCor 2911
config **.node[140].xCor 2570
config **.node[140].yCor 2924
config **.node[141].xCor 2676
config **.node[141].yCor 2890
config **.node[142].xCor 2666
config **.node[142].yCor 2876
config **.node[143].xCor 3735
config **.node[143].yCor 1726
config **.node[144].xCor 1637
config **.node[144].yCor 3438

vector 0 TaxiNetwork.node[123] visitedPerTimestep ETV
vector 1 TaxiNetwork.node[85] visitedPerTimestep ETV
vector 2 TaxiNetwork.node[32] visitedPerTimestep ETV
vector 3 TaxiNetwork.node[37] visitedPerTimestep ETV
vector 4 TaxiNetwork.node[93] visitedPerTimestep ETV
vector 5 TaxiNetwork.node[139] visitedPerTimestep ETV
vector 6 TaxiNetwork.node[120] visitedPerTimestep ETV
vector 7 TaxiNetwork.node[33] visitedPerTimestep ETV
vector 8 TaxiNetwork.node[1] visitedPerTimestep ETV
vector 9 TaxiNetwork.node[86] visitedPerTimestep ETV
vector 10 TaxiNetwork.node[100] visitedPerTimestep ETV
vector 11 TaxiNetwork.node[16] visitedPerTimestep ETV
vector 12 TaxiNetwork.node[11] visitedPerTimestep ETV
vector 13 TaxiNetwork.node[13] visitedPerTimestep ETV
vector 14 TaxiNetwork.node[53] visitedPerTimestep ETV
vector 15 TaxiNetwork.node[6] visitedPerTimestep ETV
vector 16 TaxiNetwork.node[17] visitedPerTimestep ETV
vector 17 TaxiNetwork.node[94] visitedPerTimestep ETV
vector 18 TaxiNetwork.node[0] visitedPerTimestep ETV
vector 19 TaxiNetwork.node[44] visitedPerTimestep ETV
vector 20 TaxiNetwork.node[104] visitedPerTimestep ETV
vector 21 TaxiNetwork.node[54] visitedPerTimestep ETV
vector 22 TaxiNetwork.node[105] visitedPerTimestep ETV
vector 23 TaxiNetwork.node[10] visitedPerTimestep ETV
vector 24 TaxiNetwork.node[2] visitedPerTimestep ETV
vector 25 TaxiNetwork.node[101] visitedPerTimestep ETV
vector 26 TaxiNetwork.node[29] visitedPerTimestep ETV
vector 27 TaxiNetwork.node[83] visitedPerTimestep ETV
vector 28 TaxiNetwork.node[26] visitedPerTimestep ETV
vector 29 TaxiNetwork.node[40] visitedPerTimestep ETV
vector 30 TaxiNetwork.node[102] visitedPerTimestep ETV
vector 31 TaxiNetwork.node[18] visitedPerTimestep ETV
vector 32 TaxiNetwork.node[5] visitedPerTimestep ETV
vector 33 TaxiNetwork.node[111] visitedPerTimestep ETV
vector 34 TaxiNetwork.node[117] visitedPerTimestep ETV
vector 35 TaxiNetwork.node[106] visitedPerTimestep ETV
vector 36 TaxiNetwork.node[119] visitedPerTimestep ETV
vector 37 TaxiNetwork.node[55] visitedPerTimestep ETV
vector 38 TaxiNetwork.node[144] visitedPerTimestep ETV
vector 39 TaxiNetwork.node[135] visitedPerTimestep ETV
vector 40 TaxiNetwork.node[49] visitedPerTimestep ETV
vector 41 TaxiNetwork.node[98] visitedPerTimestep ETV
vector 42 TaxiNetwork.node[51] visitedPerTimestep ETV
vector 43 TaxiNetwork.node[14] visitedPerTimestep ETV
vector 44 TaxiNetwork.node[114] visitedPerTimestep ETV
vector 45 TaxiNetwork.node[8] visitedPerTimestep ETV
vector 46 TaxiNetwork.node[46] visitedPerTimestep ETV
vector 47 TaxiNetwork.node[92] visitedPerTimestep ETV
vector 48 TaxiNetwork.node[34] visitedPerTimestep ETV
vector 49 TaxiNetwork.node[24] visitedPerTimestep ETV
vector 50 TaxiNetwork.node[22] visitedPerTimestep ETV
vector 51 TaxiNetwork.node[39] visitedPerTimestep ETV
vector 52 TaxiNetwork.node[21] visitedPerTimestep ETV
vector 53 TaxiNetwork.node[27] visitedPerTimestep ETV
vector 54 TaxiNetwork.node[3] visitedPerTimestep ETV
vector 55 TaxiNetwork.node[20] visitedPerTimestep ETV
vector 56 TaxiNetwork.node[9] visitedPerTimestep ETV
vector 57 TaxiNetwork.node[30] visitedPerTimestep ETV
vector 58 TaxiNetwork.node[7] visitedPerTimestep ETV
vector 59 TaxiNetwork.node[103] visitedPerTimestep ETV
vector 60 TaxiNetwork.node[45] visitedPerTimestep ETV
vector 61 TaxiNetwork.node[90] visitedPerTimestep ETV
vector 62 TaxiNetwork.node[112] visitedPerTimestep ETV
vector 63 TaxiNetwork.node[115] visitedPerTimestep ETV
vector 64 TaxiNetwork.node[140] visitedPerTimestep ETV
vector 65 TaxiNetwork.node[12] visitedPerTimestep ETV
vector 66 TaxiNetwork.node[88] visitedPerTimestep ETV
vector 67 TaxiNetwork.node[36] visitedPerTimestep ETV
vector 68 TaxiNetwork.node[31] visitedPerTimestep ETV
vector 69 TaxiNetwork.node[4] visitedPerTimestep ETV
vector 70 TaxiNetwork.node[89] visitedPerTimestep ETV
vector 71 TaxiNetwork.node[118] visitedPerTimestep ETV
vector 72 TaxiNetwork.node[113] visitedPerTimestep ETV
vector 73 TaxiNetwork.node[57] visitedPerTimestep ETV
vector 74 TaxiNetwork.node[137] visitedPerTimestep ETV
vector 75 TaxiNetwork.node[15] visitedPerTimestep ETV
vector 76 TaxiNetwork.node[87] visitedPerTimestep ETV
vector 77 TaxiNetwork.node[142] visitedPerTimestep ETV
vector 78 TaxiNetwork.node[141] visitedPerTimestep ETV
vector 79 TaxiNetwork.node[59] visitedPerTimestep ETV
vector 80 TaxiNetwork.node[58] visitedPerTimestep ETV
vector 81 TaxiNetwork.node[84] visitedPerTimestep ETV
vector 82 TaxiNetwork.node[52] visitedPerTimestep ETV
vector 83 TaxiNetwork.node[116] visitedPerTimestep ETV
vector 84 TaxiNetwork.node[138] visitedPerTimestep ETV
vector 85 TaxiNetwork.node[35] visitedPerTimestep ETV
vector 86 TaxiNetwork.node[91] visitedPerTimestep ETV
vector 87 TaxiNetwork.node[122] visitedPerTimestep ETV
vector 88 TaxiNetwork.node[19] visitedPerTimestep ETV
vector 89 TaxiNetwork.node[66] visitedPerTimestep ETV
vector 90 TaxiNetwork.node[67] visitedPerTimestep ETV
vector 91 TaxiNetwork.node[65] visitedPerTimestep ETV
vector 92 TaxiNetwork.node[64] visitedPerTimestep ETV
vector 93 TaxiNetwork.node[75] visitedPerTimestep ETV
vector 94 TaxiNetwork.node[68] visitedPerTimestep ETV
vector 95 TaxiNetwork.node[79] visitedPerTimestep ETV
vector 96 TaxiNetwork.node[130] visitedPerTimestep ETV
vector 97 TaxiNetwork.node[70] visitedPerTimestep ETV
vector 98 TaxiNetwork.node[61] visitedPerTimestep ETV
vector 99 TaxiNetwork.node[110] visitedPerTimestep ETV
vector 100 TaxiNetwork.node[131] visitedPerTimestep ETV
vector 101 TaxiNetwork.node[132] visitedPerTimestep ETV
vector 102 TaxiNetwork.node[128] visitedPerTimestep ETV
vector 103 TaxiNetwork.node[127] visitedPerTimestep ETV
vector 104 TaxiNetwork.node[60] visitedPerTimestep ETV
vector 105 TaxiNetwork.node[99] visitedPerTimestep ETV
vector 106 TaxiNetwork.node[121] visitedPerTimestep ETV
vector 107 TaxiNetwork.node[69] visitedPerTimestep ETV
vector 108 TaxiNetwork.node[133] visitedPerTimestep ETV
vector 109 TaxiNetwork.node[78] visitedPerTimestep ETV
vector 110 TaxiNetwork.node[72] visitedPerTimestep ETV
vector 111 TaxiNetwork.node[62] visitedPerTimestep ETV
vector 112 TaxiNetwork.node[77] visitedPerTimestep ETV
vector 113 TaxiNetwork.node[73] visitedPerTimestep ETV
vector 114 TaxiNetwork.node[63] visitedPerTimestep ETV
vector 115 TaxiNetwork.node[74] visitedPerTimestep ETV
vector 116 TaxiNetwork.node[97] visitedPerTimestep ETV
vector 117 TaxiNetwork.node[82] visitedPerTimestep ETV
vector 118 TaxiNetwork.node[143] visitedPerTimestep ETV
vector 119 TaxiNetwork.node[76] visitedPerTimestep ETV
vector 120 TaxiNetwork.node[126] visitedPerTimestep ETV
vector 121 TaxiNetwork.node[134] visitedPerTimestep ETV
vector 122 TaxiNetwork.node[80] visitedPerTimestep ETV
vector 123 TaxiNetwork.node[129] visitedPerTimestep ETV
vector 124 TaxiNetwork.node[50] visitedPerTimestep ETV
vector 125 TaxiNetwork.node[48] visitedPerTimestep ETV
vector 126 TaxiNetwork.node[56] visitedPerTimestep ETV
vector 127 TaxiNetwork.node[109] visitedPerTimestep ETV
vector 128 TaxiNetwork.node[42] visitedPerTimestep ETV
vector 129 TaxiNetwork.node[108] visitedPerTimestep ETV
vector 130 TaxiNetwork.node[41] visitedPerTimestep ETV
vector 131 TaxiNetwork.node[43] visitedPerTimestep ETV
vector 132 TaxiNetwork.node[38] visitedPerTimestep ETV
vector 133 TaxiNetwork.node[25] visitedPerTimestep ETV
vector 134 TaxiNetwork.node[28] visitedPerTimestep ETV
vector 135 TaxiNetwork.node[95] visitedPerTimestep ETV
vector 136 TaxiNetwork.node[136] visitedPerTimestep ETV
vector 137 TaxiNetwork.node[47] visitedPerTimestep ETV
vector 138 TaxiNetwork.node[125] visitedPerTimestep ETV
vector 139 TaxiNetwork.node[81] visitedPerTimestep ETV
vector 140 TaxiNetwork.node[71] visitedPerTimestep ETV
vector 141 TaxiNetwork.node[23] visitedPerTimestep ETV
vector 142 TaxiNetwork.node[96] visitedPerTimestep ETV
vector 143 TaxiNetwork.node[107] visitedPerTimestep ETV
0	16919 405 1 10568 0 0 32 1 144 4244 583888
1	17324 506 2 9528 0 0 41 2 144 5167 696087
2	17830 342 3 10064 0 0 27 3 144 3564 492102
3	18172 221 4 10080 0 0 18 4 144 2125 286381
4	18393 505 5 10088 0 0 40 5 144 5225 723823
5	18898 558 6 10584 0 0 44 6 144 5764 796442
6	19456 600 7 9696 0 0 48 7 144 6211 847651
7	20056 268 9 10264 0 0 22 8 144 2561 331759
8	20324 576 10 10376 0 0 46 9 144 5993 808187
9	20900 426 11 9304 0 0 34 10 144 4391 596921
10	21326 686 14 9424 0 0 50 11 144 6745 930297
11	22012 662 15 9360 0 0 49 12 144 6246 839654
12	22674 520 16 9576 0 0 38 13 144 5100 701998
13	23194 704 17 10624 0 0 52 14 144 6656 898176
14	23898 389 18 10408 0 0 29 15 144 3625 488777
15	24287 783 19 10248 0 0 58 16 144 7236 958386
16	25070 644 20 10312 0 0 47 17 144 6215 849653
17	25714 458 22 10296 0 0 34 18 144 4312 577736
18	26172 572 23 10600 0 0 42 19 144 5371 725271
19	26744 527 24 10224 0 0 39 20 144 5141 699189
20	27271 545 25 10144 0 0 40 21 144 5190 698266
21	27816 488 26 10400 0 0 36 22 144 4648 625598
22	28304 177 27 9448 0 0 13 23 144 1694 233532
23	28481 493 30 10368 0 0 36 24 144 4776 650266
24	28974 631 31 10432 0 0 46 25 144 6146 841520
25	29605 444 33 10288 0 0 33 26 144 4068 541470
26	30049 214 35 9976 0 0 16 27 144 1981 264587
27	30263 256 36 10000 0 0 19 28 144 2344 313584
28	30519 67 37 10024 0 0 5 29 144 589 79307
29	30586 149 38 5728 0 0 11 30 143 1398 188642
30	30735 478 39 10168 0 0 35 31 144 4590 621788
31	31213 614 44 9752 0 0 45 32 144 5962 809784
32	31827 703 46 10552 0 0 51 33 144 6951 962519
33	32530 232 49 9464 0 0 17 34 144 2269 313893
34	32762 358 50 10632 0 0 26 35 144 3505 484801
35	33120 188 51 8064 0 0 14 36 144 1767 237703
36	33308 218 52 8744 0 0 16 37 144 2100 285822
37	33526 377 53 8968 0 0 28 38 144 3670 495636
38	33903 206 54 8960 0 0 15 39 144 2012 279926
39	34109 147 55 8944 0 0 11 40 144 1345 181115
40	34256 81 56 8896 0 0 6 41 144 757 104217
41	34337 192 58 8872 0 0 14 42 144 1872 259662
42	34529 178 59 8760 0 0 13 43 144 1718 235976
43	34707 628 61 10184 0 0 46 44 144 6128 839120
44	35335 377 63 10232 0 0 28 45 144 3572 473194
45	35712 567 64 10488 0 0 42 46 144 5520 746928
46	36279 509 66 10344 0 0 37 47 144 4983 686757
47	36788 730 69 10536 0 0 53 48 144 7224 996278
48	37518 249 71 10152 0 0 18 49 144 2422 333820
49	37767 149 72 4472 0 0 11 50 142 1426 192112
50	37916 123 73 10032 0 0 9 51 144 1160 156648
51	38039 94 75 9768 0 0 7 52 144 875 115813
52	38133 108 76 5716 0 0 8 53 143 1034 140350
53	38241 164 78 10160 0 0 12 54 144 1572 212970
54	38405 485 81 10592 0 0 36 55 144 4628 615670
55	38890 730 84 9704 0 0 53 56 144 7293 1011809
56	39620 533 86 9592 0 0 39 57 144 5221 711809
57	40153 670 87 10608 0 0 49 58 144 6520 885206
58	40823 652 90 10200 0 0 48 59 144 6362 863086
59	41475 575 91 10656 0 0 42 60 144 5647 771903
60	42050 532 93 10416 0 0 39 61 144 5190 705334
61	42582 649 94 10056 0 0 48 62 144 6222 829058
62	43231 163 98 10240 0 0 12 63 144 1563 208987
63	43394 517 99 10480 0 0 38 64 144 5025 679707
64	43911 659 103 10544 0 0 48 65 144 6410 871250
65	44570 430 104 10464 0 0 31 66 144 4262 591616
66	45000 570 105 10120 0 0 42 67 144 5472 731894
67	45570 318 111 9968 0 0 23 68 144 3142 434384
68	45888 231 116 9760 0 0 17 69 144 2228 299282
69	46119 480 119 10448 0 0 35 70 144 4656 634340
70	46599 713 121 10616 0 0 52 71 144 6997 956075
71	47312 504 125 8736 0 0 37 72 144 4947 672511
72	47816 166 131 7072 0 0 12 73 144 1622 223532
73	47982 191 132 6612 0 0 14 74 144 1869 253863
74	48173 783 134 10528 0 0 57 75 144 7685 1049197
75	48956 631 136 7816 0 0 46 76 144 6241 854727
76	49587 623 141 9560 0 0 46 77 144 6075 814625
77	50210 656 142 10280 0 0 48 78 144 6461 882679
78	50866 616 154 9584 0 0 45 79 144 6090 834780
79	51482 135 156 5544 0 0 10 80 143 1259 163983
80	51617 121 157 4988 0 0 9 81 143 1152 151398
81	51738 452 175 10576 0 0 33 82 144 4412 596702
82	52190 466 181 9720 0 0 34 83 144 4598 628822
83	52656 414 194 10520 0 0 30 84 144 4093 564073
84	53070 620 196 9920 0 0 45 85 144 6157 849691
85	53690 151 210 9272 0 0 11 86 144 1486 203510
86	53841 520 223 10424 0 0 38 87 144 5134 698954
87	54361 491 227 9936 0 0 36 88 144 4870 664680
88	54852 575 235 9224 0 0 42 89 144 5739 788505
89	55427 135 246 7944 0 0 10 90 144 1303 172529
90	55562 134 247 6732 0 0 10 91 144 1287 168793
91	55696 95 248 4856 0 0 7 92 143 904 118752
92	55791 204 249 10704 0 0 15 93 144 1983 265399
93	55995 285 250 7752 0 0 21 94 144 2794 376350
94	56280 258 251 10680 0 0 19 95 144 2524 339366
95	56538 255 252 7904 0 0 19 96 144 2544 343148
96	56793 203 253 7432 0 0 15 97 144 2004 270480
97	56996 164 254 4936 0 0 12 98 143 1614 219534
98	57160 289 255 10696 0 0 21 99 144 2860 392228
99	57449 344 273 7584 0 0 25 100 144 3388 462064
100	57793 337 274 9416 0 0 23 101 144 3103 421251
101	58130 337 275 7896 0 0 23 102 144 3074 413754
102	58467 339 277 10720 0 0 23 103 144 3110 423990
103	58806 75 278 10728 0 0 5 104 144 672 91490
104	58881 392 280 7784 0 0 27 105 144 3588 480474
105	59273 176 281 10712 0 0 12 106 144 1584 211112
106	59449 235 282 7912 0 0 16 107 144 2164 294718
107	59684 381 284 10688 0 0 26 108 144 3487 470599
108	60065 280 285 7928 0 0 19 109 144 2586 354110
109	60345 131 288 7552 0 0 9 110 144 1195 160347
110	60476 203 289 7000 0 0 14 111 144 1870 251362
111	60679 247 290 7760 0 0 17 112 144 2241 297705
112	60926 72 293 4584 0 0 5 113 142 638 82142
113	60998 101 296 7712 0 0 7 114 144 917 120997
114	61099 220 299 7592 0 0 15 115 144 2022 273902
115	61319 161 319 9888 0 0 11 116 144 1460 194856
116	61480 44 320 2528 0 0 3 117 139 392 51506
117	61524 174 322 6032 0 0 12 118 144 1591 211793
118	61698 176 351 7936 0 0 12 119 144 1625 221049
119	61874 117 360 5924 0 0 8 120 144 1092 149742
120	61991 133 376 7744 0 0 9 121 144 1258 176302
121	62124 209 381 10664 0 0 14 122 144 1948 271532
122	62333 102 517 7688 0 0 7 123 144 956 131102
123	62435 148 540 7696 0 0 10 124 144 1389 193509
124	62583 104 604 8952 0 0 7 125 144 987 139469
125	62687 104 606 8848 0 0 7 126 144 980 137456
126	62791 251 644 9032 0 0 17 127 144 2376 332466
127	63042 70 656 680 0 0 5 128 134 660 87142
128	63112 114 657 9864 0 0 8 129 144 1085 147359
129	63226 155 658 9880 0 0 11 130 144 1475 197907
130	63381 128 659 9856 0 0 9 131 144 1220 165568
131	63509 86 660 9872 0 0 6 132 144 820 112230
132	63595 58 663 9824 0 0 4 133 144 555 77117
133	63653 43 676 9816 0 0 3 134 144 412 56648
134	63696 104 692 10016 0 0 7 135 144 979 137019
135	63800 59 963 7672 0 0 4 136 144 566 80132
136	63859 150 2202 8880 0 0 10 138 144 1427 203681
137	64009 120 2212 8920 0 0 8 139 144 1139 162185
138	64129 31 2670 10744 0 0 2 140 144 284 40336
139	64160 47 2672 10752 0 0 3 141 144 429 61353
140	64207 30 2704 7496 0 0 2 142 144 286 40900
141	64237 30 3820 9800 0 0 2 142 144 286 40900
142	64267 15 6992 6992 0 0 1 144 144 144 20736
143	64282 16 10760 10760 0 0 1 145 145 145 21025

