version 3
run General-420-20250904-14:13:23-15906
attr configname General
attr datetime 20250904-14:13:23
attr datetimef 20250904-141323
attr experiment General
attr inifile omnetpp.ini
attr iterationvars ""
attr iterationvarsd ""
attr iterationvarsf ""
attr measurement ""
attr network TaxiNetwork
attr processid 15906
attr repetition 420
attr replication #420
attr resultdir results
attr runnumber 420
attr seedset 420
config network TaxiNetwork
config seed-set 420
config num-rngs 1
config sim-time-limit 10s
config repeat 500
config *.numWalkers 1
config *.enableDuplication true
config *.rc 700
config **.node[0].xCor 2933
config **.node[0].yCor 2747
config **.node[1].xCor 2919
config **.node[1].yCor 2817
config **.node[2].xCor 2910
config **.node[2].yCor 2861
config **.node[3].xCor 2429
config **.node[3].yCor 2851
config **.node[4].xCor 2908
config **.node[4].yCor 2714
config **.node[5].xCor 2606
config **.node[5].yCor 2722
config **.node[6].xCor 2575
config **.node[6].yCor 2753
config **.node[7].xCor 2654
config **.node[7].yCor 2513
config **.node[8].xCor 2773
config **.node[8].yCor 2580
config **.node[9].xCor 3043
config **.node[9].yCor 2780
config **.node[10].xCor 3020
config **.node[10].yCor 2813
config **.node[11].xCor 2599
config **.node[11].yCor 2300
config **.node[12].xCor 2917
config **.node[12].yCor 2698
config **.node[13].xCor 2625
config **.node[13].yCor 2641
config **.node[14].xCor 2604
config **.node[14].yCor 2790
config **.node[15].xCor 2786
config **.node[15].yCor 3082
config **.node[16].xCor 2603
config **.node[16].yCor 2802
config **.node[17].xCor 2637
config **.node[17].yCor 2869
config **.node[18].xCor 2675
config **.node[18].yCor 2955
config **.node[19].xCor 2845
config **.node[19].yCor 2937
config **.node[20].xCor 2860
config **.node[20].yCor 2888
config **.node[21].xCor 2843
config **.node[21].yCor 4158
config **.node[22].xCor 2852
config **.node[22].yCor 4017
config **.node[23].xCor 2892
config **.node[23].yCor 4961
config **.node[24].xCor 2313
config **.node[24].yCor 3993
config **.node[25].xCor 2891
config **.node[25].yCor 4959
config **.node[26].xCor 2370
config **.node[26].yCor 4050
config **.node[27].xCor 2788
config **.node[27].yCor 3958
config **.node[28].xCor 2819
config **.node[28].yCor 4428
config **.node[29].xCor 2790
config **.node[29].yCor 3761
config **.node[30].xCor 2809
config **.node[30].yCor 2908
config **.node[31].xCor 2919
config **.node[31].yCor 3575
config **.node[32].xCor 2946
config **.node[32].yCor 3466
config **.node[33].xCor 2911
config **.node[33].yCor 3453
config **.node[34].xCor 2370
config **.node[34].yCor 3656
config **.node[35].xCor 2438
config **.node[35].yCor 3738
config **.node[36].xCor 2737
config **.node[36].yCor 3570
config **.node[37].xCor 2921
config **.node[37].yCor 3698
config **.node[38].xCor 2907
config **.node[38].yCor 5197
config **.node[39].xCor 2860
config **.node[39].yCor 3852
config **.node[40].xCor 2927
config **.node[40].yCor 3684
config **.node[41].xCor 3023
config **.node[41].yCor 5313
config **.node[42].xCor 3220
config **.node[42].yCor 5811
config **.node[43].xCor 3432
config **.node[43].yCor 5715
config **.node[44].xCor 2754
config **.node[44].yCor 2463
config **.node[45].xCor 2646
config **.node[45].yCor 2673
config **.node[46].xCor 3051
config **.node[46].yCor 2792
config **.node[47].xCor 1666
config **.node[47].yCor 3697
config **.node[48].xCor 1662
config **.node[48].yCor 3694
config **.node[49].xCor 1664
config **.node[49].yCor 3667
config **.node[50].xCor 1660
config **.node[50].yCor 3664
config **.node[51].xCor 1710
config **.node[51].yCor 3573
config **.node[52].xCor 2082
config **.node[52].yCor 2650
config **.node[53].xCor 2086
config **.node[53].yCor 2657
config **.node[54].xCor 2257
config **.node[54].yCor 3232
config **.node[55].xCor 2258
config **.node[55].yCor 3225
config **.node[56].xCor 1926
config **.node[56].yCor 2570
config **.node[57].xCor 1926
config **.node[57].yCor 2576
config **.node[58].xCor 2104
config **.node[58].yCor 1758
config **.node[59].xCor 1957
config **.node[59].yCor 1826
config **.node[60].xCor 3473
config **.node[60].yCor 1523
config **.node[61].xCor 3335
config **.node[61].yCor 1726
config **.node[62].xCor 3478
config **.node[62].yCor 1517
config **.node[63].xCor 3386
config **.node[63].yCor 2119
config **.node[64].xCor 3474
config **.node[64].yCor 1762
config **.node[65].xCor 3797
config **.node[65].yCor 2099
config **.node[66].xCor 3642
config **.node[66].yCor 2136
config **.node[67].xCor 3481
config **.node[67].yCor 2334
config **.node[68].xCor 3088
config **.node[68].yCor 1505
config **.node[69].xCor 3037
config **.node[69].yCor 1693
config **.node[70].xCor 3026
config **.node[70].yCor 1700
config **.node[71].xCor 3019
config **.node[71].yCor 669
config **.node[72].xCor 3513
config **.node[72].yCor 1358
config **.node[73].xCor 3545
config **.node[73].yCor 1230
config **.node[74].xCor 4228
config **.node[74].yCor 4220
config **.node[75].xCor 3379
config **.node[75].yCor 1207
config **.node[76].xCor 3596
config **.node[76].yCor 963
config **.node[77].xCor 3637
config **.node[77].yCor 1188
config **.node[78].xCor 3759
config **.node[78].yCor 1030
config **.node[79].xCor 2918
config **.node[79].yCor 1455
config **.node[80].xCor 2711
config **.node[80].yCor 1297
config **.node[81].xCor 439
config **.node[81].yCor 1623
config **.node[82].xCor 2857
config **.node[82].yCor 3581
config **.node[83].xCor 2858
config **.node[83].yCor 3584
config **.node[84].xCor 2999
config **.node[84].yCor 2636
config **.node[85].xCor 2905
config **.node[85].yCor 2778
config **.node[86].xCor 2653
config **.node[86].yCor 2845
config **.node[87].xCor 2864
config **.node[87].yCor 2836
config **.node[88].xCor 2426
config **.node[88].yCor 2892
config **.node[89].xCor 2964
config **.node[89].yCor 2804
config **.node[90].xCor 2586
config **.node[90].yCor 3135
config **.node[91].xCor 2864
config **.node[91].yCor 2980
config **.node[92].xCor 2527
config **.node[92].yCor 3219
config **.node[93].xCor 2863
config **.node[93].yCor 3142
config **.node[94].xCor 2485
config **.node[94].yCor 3269
config **.node[95].xCor 2653
config **.node[95].yCor 1065
config **.node[96].xCor 4062
config **.node[96].yCor 400
config **.node[97].xCor 5762
config **.node[97].yCor 3023
config **.node[98].xCor 1414
config **.node[98].yCor 3461
config **.node[99].xCor 2911
config **.node[99].yCor 1737
config **.node[100].xCor 2595
config **.node[100].yCor 2299
config **.node[101].xCor 2702
config **.node[101].yCor 3419
config **.node[102].xCor 2813
config **.node[102].yCor 3307
config **.node[103].xCor 2638
config **.node[103].yCor 2258
config **.node[104].xCor 2590
config **.node[104].yCor 3125
config **.node[105].xCor 1856
config **.node[105].yCor 2990
config **.node[106].xCor 1894
config **.node[106].yCor 2239
config **.node[107].xCor 383
config **.node[107].yCor 1251
config **.node[108].xCor 3447
config **.node[108].yCor 5489
config **.node[109].xCor 3450
config **.node[109].yCor 5697
config **.node[110].xCor 2719
config **.node[110].yCor 1920
config **.node[111].xCor 2085
config **.node[111].yCor 2389
config **.node[112].xCor 1910
config **.node[112].yCor 2548
config **.node[113].xCor 2069
config **.node[113].yCor 2050
config **.node[114].xCor 2184
config **.node[114].yCor 2209
config **.node[115].xCor 2278
config **.node[115].yCor 2390
config **.node[116].xCor 2249
config **.node[116].yCor 2299
config **.node[117].xCor 2356
config **.node[117].yCor 2303
config **.node[118].xCor 2192
config **.node[118].yCor 2475
config **.node[119].xCor 1720
config **.node[119].yCor 2911
config **.node[120].xCor 2400
config **.node[120].yCor 2887
config **.node[121].xCor 3344
config **.node[121].yCor 1890
config **.node[122].xCor 3136
config **.node[122].yCor 2418
config **.node[123].xCor 3243
config **.node[123].yCor 2525
config **.node[124].xCor 2396
config **.node[124].yCor 1267
config **.node[125].xCor 467
config **.node[125].yCor 1875
config **.node[126].xCor 3506
config **.node[126].yCor 1221
config **.node[127].xCor 1034
config **.node[127].yCor 1474
config **.node[128].xCor 2908
config **.node[128].yCor 1784
config **.node[129].xCor 2876
config **.node[129].yCor 1761
config **.node[130].xCor 2849
config **.node[130].yCor 1795
config **.node[131].xCor 3029
config **.node[131].yCor 1859
config **.node[132].xCor 2924
config **.node[132].yCor 1848
config **.node[133].xCor 3493
config **.node[133].yCor 1559
config **.node[134].xCor 2760
config **.node[134].yCor 1761
config **.node[135].xCor 1644
config **.node[135].yCor 3755
config **.node[136].xCor 1463
config **.node[136].yCor 3432
config **.node[137].xCor 2595
config **.node[137].yCor 2849
config **.node[138].xCor 2581
config **.node[138].yCor 2867
config **.node[139].xCor 2524
config **.node[139].yCor 2911
config **.node[140].xCor 2570
config **.node[140].yCor 2924
config **.node[141].xCor 2676
config **.node[141].yCor 2890
config **.node[142].xCor 2666
config **.node[142].yCor 2876
config **.node[143].xCor 3735
config **.node[143].yCor 1726
config **.node[144].xCor 1637
config **.node[144].yCor 3438

vector 0 TaxiNetwork.node[138] visitedPerTimestep ETV
vector 1 TaxiNetwork.node[8] visitedPerTimestep ETV
vector 2 TaxiNetwork.node[6] visitedPerTimestep ETV
vector 3 TaxiNetwork.node[85] visitedPerTimestep ETV
vector 4 TaxiNetwork.node[52] visitedPerTimestep ETV
vector 5 TaxiNetwork.node[18] visitedPerTimestep ETV
vector 6 TaxiNetwork.node[46] visitedPerTimestep ETV
vector 7 TaxiNetwork.node[14] visitedPerTimestep ETV
vector 8 TaxiNetwork.node[94] visitedPerTimestep ETV
vector 9 TaxiNetwork.node[34] visitedPerTimestep ETV
vector 10 TaxiNetwork.node[26] visitedPerTimestep ETV
vector 11 TaxiNetwork.node[36] visitedPerTimestep ETV
vector 12 TaxiNetwork.node[21] visitedPerTimestep ETV
vector 13 TaxiNetwork.node[29] visitedPerTimestep ETV
vector 14 TaxiNetwork.node[101] visitedPerTimestep ETV
vector 15 TaxiNetwork.node[1] visitedPerTimestep ETV
vector 16 TaxiNetwork.node[100] visitedPerTimestep ETV
vector 17 TaxiNetwork.node[5] visitedPerTimestep ETV
vector 18 TaxiNetwork.node[115] visitedPerTimestep ETV
vector 19 TaxiNetwork.node[45] visitedPerTimestep ETV
vector 20 TaxiNetwork.node[141] visitedPerTimestep ETV
vector 21 TaxiNetwork.node[55] visitedPerTimestep ETV
vector 22 TaxiNetwork.node[139] visitedPerTimestep ETV
vector 23 TaxiNetwork.node[140] visitedPerTimestep ETV
vector 24 TaxiNetwork.node[137] visitedPerTimestep ETV
vector 25 TaxiNetwork.node[122] visitedPerTimestep ETV
vector 26 TaxiNetwork.node[130] visitedPerTimestep ETV
vector 27 TaxiNetwork.node[86] visitedPerTimestep ETV
vector 28 TaxiNetwork.node[33] visitedPerTimestep ETV
vector 29 TaxiNetwork.node[20] visitedPerTimestep ETV
vector 30 TaxiNetwork.node[9] visitedPerTimestep ETV
vector 31 TaxiNetwork.node[12] visitedPerTimestep ETV
vector 32 TaxiNetwork.node[67] visitedPerTimestep ETV
vector 33 TaxiNetwork.node[65] visitedPerTimestep ETV
vector 34 TaxiNetwork.node[121] visitedPerTimestep ETV
vector 35 TaxiNetwork.node[69] visitedPerTimestep ETV
vector 36 TaxiNetwork.node[60] visitedPerTimestep ETV
vector 37 TaxiNetwork.node[61] visitedPerTimestep ETV
vector 38 TaxiNetwork.node[99] visitedPerTimestep ETV
vector 39 TaxiNetwork.node[131] visitedPerTimestep ETV
vector 40 TaxiNetwork.node[63] visitedPerTimestep ETV
vector 41 TaxiNetwork.node[62] visitedPerTimestep ETV
vector 42 TaxiNetwork.node[79] visitedPerTimestep ETV
vector 43 TaxiNetwork.node[64] visitedPerTimestep ETV
vector 44 TaxiNetwork.node[143] visitedPerTimestep ETV
vector 45 TaxiNetwork.node[126] visitedPerTimestep ETV
vector 46 TaxiNetwork.node[133] visitedPerTimestep ETV
vector 47 TaxiNetwork.node[75] visitedPerTimestep ETV
vector 48 TaxiNetwork.node[77] visitedPerTimestep ETV
vector 49 TaxiNetwork.node[70] visitedPerTimestep ETV
vector 50 TaxiNetwork.node[80] visitedPerTimestep ETV
vector 51 TaxiNetwork.node[95] visitedPerTimestep ETV
vector 52 TaxiNetwork.node[124] visitedPerTimestep ETV
vector 53 TaxiNetwork.node[16] visitedPerTimestep ETV
vector 54 TaxiNetwork.node[10] visitedPerTimestep ETV
vector 55 TaxiNetwork.node[4] visitedPerTimestep ETV
vector 56 TaxiNetwork.node[120] visitedPerTimestep ETV
vector 57 TaxiNetwork.node[105] visitedPerTimestep ETV
vector 58 TaxiNetwork.node[136] visitedPerTimestep ETV
vector 59 TaxiNetwork.node[51] visitedPerTimestep ETV
vector 60 TaxiNetwork.node[93] visitedPerTimestep ETV
vector 61 TaxiNetwork.node[44] visitedPerTimestep ETV
vector 62 TaxiNetwork.node[117] visitedPerTimestep ETV
vector 63 TaxiNetwork.node[58] visitedPerTimestep ETV
vector 64 TaxiNetwork.node[59] visitedPerTimestep ETV
vector 65 TaxiNetwork.node[113] visitedPerTimestep ETV
vector 66 TaxiNetwork.node[114] visitedPerTimestep ETV
vector 67 TaxiNetwork.node[53] visitedPerTimestep ETV
vector 68 TaxiNetwork.node[13] visitedPerTimestep ETV
vector 69 TaxiNetwork.node[89] visitedPerTimestep ETV
vector 70 TaxiNetwork.node[88] visitedPerTimestep ETV
vector 71 TaxiNetwork.node[111] visitedPerTimestep ETV
vector 72 TaxiNetwork.node[116] visitedPerTimestep ETV
vector 73 TaxiNetwork.node[19] visitedPerTimestep ETV
vector 74 TaxiNetwork.node[87] visitedPerTimestep ETV
vector 75 TaxiNetwork.node[123] visitedPerTimestep ETV
vector 76 TaxiNetwork.node[90] visitedPerTimestep ETV
vector 77 TaxiNetwork.node[82] visitedPerTimestep ETV
vector 78 TaxiNetwork.node[27] visitedPerTimestep ETV
vector 79 TaxiNetwork.node[2] visitedPerTimestep ETV
vector 80 TaxiNetwork.node[31] visitedPerTimestep ETV
vector 81 TaxiNetwork.node[40] visitedPerTimestep ETV
vector 82 TaxiNetwork.node[32] visitedPerTimestep ETV
vector 83 TaxiNetwork.node[74] visitedPerTimestep ETV
vector 84 TaxiNetwork.node[83] visitedPerTimestep ETV
vector 85 TaxiNetwork.node[104] visitedPerTimestep ETV
vector 86 TaxiNetwork.node[3] visitedPerTimestep ETV
vector 87 TaxiNetwork.node[142] visitedPerTimestep ETV
vector 88 TaxiNetwork.node[84] visitedPerTimestep ETV
vector 89 TaxiNetwork.node[54] visitedPerTimestep ETV
vector 90 TaxiNetwork.node[118] visitedPerTimestep ETV
vector 91 TaxiNetwork.node[103] visitedPerTimestep ETV
vector 92 TaxiNetwork.node[15] visitedPerTimestep ETV
vector 93 TaxiNetwork.node[7] visitedPerTimestep ETV
vector 94 TaxiNetwork.node[37] visitedPerTimestep ETV
vector 95 TaxiNetwork.node[102] visitedPerTimestep ETV
vector 96 TaxiNetwork.node[109] visitedPerTimestep ETV
vector 97 TaxiNetwork.node[42] visitedPerTimestep ETV
vector 98 TaxiNetwork.node[38] visitedPerTimestep ETV
vector 99 TaxiNetwork.node[25] visitedPerTimestep ETV
vector 100 TaxiNetwork.node[28] visitedPerTimestep ETV
vector 101 TaxiNetwork.node[41] visitedPerTimestep ETV
vector 102 TaxiNetwork.node[108] visitedPerTimestep ETV
vector 103 TaxiNetwork.node[97] visitedPerTimestep ETV
vector 104 TaxiNetwork.node[17] visitedPerTimestep ETV
vector 105 TaxiNetwork.node[0] visitedPerTimestep ETV
vector 106 TaxiNetwork.node[11] visitedPerTimestep ETV
vector 107 TaxiNetwork.node[91] visitedPerTimestep ETV
vector 108 TaxiNetwork.node[119] visitedPerTimestep ETV
vector 109 TaxiNetwork.node[92] visitedPerTimestep ETV
vector 110 TaxiNetwork.node[30] visitedPerTimestep ETV
vector 111 TaxiNetwork.node[144] visitedPerTimestep ETV
vector 112 TaxiNetwork.node[48] visitedPerTimestep ETV
vector 113 TaxiNetwork.node[47] visitedPerTimestep ETV
vector 114 TaxiNetwork.node[49] visitedPerTimestep ETV
vector 115 TaxiNetwork.node[50] visitedPerTimestep ETV
vector 116 TaxiNetwork.node[98] visitedPerTimestep ETV
vector 117 TaxiNetwork.node[135] visitedPerTimestep ETV
vector 118 TaxiNetwork.node[106] visitedPerTimestep ETV
vector 119 TaxiNetwork.node[112] visitedPerTimestep ETV
vector 120 TaxiNetwork.node[57] visitedPerTimestep ETV
vector 121 TaxiNetwork.node[129] visitedPerTimestep ETV
vector 122 TaxiNetwork.node[110] visitedPerTimestep ETV
vector 123 TaxiNetwork.node[56] visitedPerTimestep ETV
vector 124 TaxiNetwork.node[24] visitedPerTimestep ETV
vector 125 TaxiNetwork.node[76] visitedPerTimestep ETV
vector 126 TaxiNetwork.node[66] visitedPerTimestep ETV
vector 127 TaxiNetwork.node[134] visitedPerTimestep ETV
vector 128 TaxiNetwork.node[128] visitedPerTimestep ETV
vector 129 TaxiNetwork.node[35] visitedPerTimestep ETV
vector 130 TaxiNetwork.node[43] visitedPerTimestep ETV
vector 131 TaxiNetwork.node[23] visitedPerTimestep ETV
vector 132 TaxiNetwork.node[132] visitedPerTimestep ETV
vector 133 TaxiNetwork.node[22] visitedPerTimestep ETV
vector 134 TaxiNetwork.node[71] visitedPerTimestep ETV
vector 135 TaxiNetwork.node[68] visitedPerTimestep ETV
vector 136 TaxiNetwork.node[72] visitedPerTimestep ETV
vector 137 TaxiNetwork.node[39] visitedPerTimestep ETV
vector 138 TaxiNetwork.node[127] visitedPerTimestep ETV
vector 139 TaxiNetwork.node[78] visitedPerTimestep ETV
vector 140 TaxiNetwork.node[73] visitedPerTimestep ETV
vector 141 TaxiNetwork.node[125] visitedPerTimestep ETV
0	1	0	1
0	5	0	4
0	260	0	108
0	264	0	109
0	320	0	118
0	361	0	122
0	363	0	122
0	453	0	123
0	520	0	124
0	539	0	124
0	600	0	128
0	607	0	128
0	705	0	130
0	732	0	130
0	747	0	130
0	765	0	130
0	968	0	133
0	977	0	133
0	1260	0	138
0	1418	0	138
0	1452	0	138
0	1602	0	140
0	2084	0	142
0	2120	0	142
0	2262	0	142
0	2498	0	142
0	2916	0	142
0	3628	0	142
0	4372	0	142
0	4504	0	142
0	5272	0	142
0	5296	0	142
0	5404	0	142
0	6100	0	142
0	7408	0	142
0	8760	0	142
0	8952	0	144
0	9472	0	144
1	2	0	2
1	8	0	6
1	86	0	60
1	89	0	61
1	99	0	69
1	116	0	74
1	155	0	89
1	284	0	110
1	387	0	122
1	431	0	123
1	433	0	123
1	754	0	130
1	761	0	130
1	825	0	132
1	945	0	133
1	1038	0	134
1	1258	0	138
1	1362	0	138
1	1576	0	140
1	1768	0	142
1	1832	0	142
1	1852	0	142
1	2340	0	142
1	2344	0	142
1	2596	0	142
1	2624	0	142
1	2638	0	142
1	2794	0	142
1	2936	0	142
1	3144	0	142
1	3364	0	142
1	3476	0	142
1	3536	0	142
1	3748	0	142
1	3756	0	142
1	3764	0	142
1	3904	0	142
1	4016	0	142
1	4440	0	142
1	4616	0	142
1	4964	0	142
1	5300	0	142
1	5568	0	142
1	6292	0	142
1	6448	0	142
1	6988	0	142
1	6996	0	142
1	7304	0	142
1	7536	0	142
1	8960	0	144
1	9376	0	144
1	9824	0	144
2	3	0	3
2	29	0	22
2	510	0	124
2	542	0	124
2	597	0	128
2	611	0	128
2	850	0	132
2	911	0	133
2	913	0	133
2	915	0	133
2	933	0	133
2	939	0	133
2	970	0	133
2	988	0	133
2	1016	0	134
2	1428	0	138
2	1484	0	138
2	1938	0	142
2	1966	0	142
2	2184	0	142
2	2192	0	142
2	2328	0	142
2	2536	0	142
2	2660	0	142
2	2678	0	142
2	2788	0	142
2	2826	0	142
2	2932	0	142
2	3292	0	142
2	3472	0	142
2	3872	0	142
2	4156	0	142
2	4412	0	142
2	4736	0	142
2	4912	0	142
2	5112	0	142
2	5712	0	142
2	6288	0	142
2	6360	0	142
2	6612	0	142
2	6652	0	142
2	7392	0	142
2	7752	0	142
2	8456	0	142
2	8768	0	142
2	8800	0	142
2	9408	0	144
2	9424	0	144
2	10184	0	144
2	10296	0	144
2	10600	0	144
2	10864	0	144
2	10880	0	144
2	11000	0	144
3	4	0	4
3	20	0	16
3	153	0	89
3	181	0	94
3	247	0	106
3	274	0	110
3	446	0	123
3	498	0	124
3	626	0	128
3	717	0	130
3	851	0	132
3	986	0	133
3	1824	0	142
3	1906	0	142
3	2058	0	142
3	2112	0	142
3	2352	0	142
3	2404	0	142
3	2650	0	142
3	2682	0	142
3	2738	0	142
3	3288	0	142
3	3592	0	142
3	3632	0	142
3	3908	0	142
3	4080	0	142
3	4164	0	142
3	4184	0	142
3	4204	0	142
3	4732	0	142
3	4760	0	142
3	4980	0	142
3	5108	0	142
3	5160	0	142
3	5392	0	142
3	5432	0	142
3	5624	0	142
3	6700	0	142
3	6952	0	142
3	7888	0	142
3	10840	0	144
3	11048	0	144
4	6	0	5
4	158	0	89
4	171	0	93
4	235	0	106
4	327	0	121
4	372	0	122
4	378	0	122
4	434	0	123
4	503	0	124
4	820	0	132
4	895	0	133
4	938	0	133
4	1394	0	138
4	1752	0	140
4	1772	0	142
4	1928	0	142
4	2324	0	142
4	2662	0	142
4	2670	0	142
4	2796	0	142
4	4352	0	142
4	4496	0	142
4	5584	0	142
4	7056	0	142
4	9416	0	144
4	9672	0	144
4	9752	0	144
4	10544	0	144
4	10632	0	144
4	11208	0	144
5	7	0	6
5	27	0	22
5	121	0	76
5	196	0	94
5	253	0	108
5	343	0	121
5	373	0	122
5	675	0	129
5	755	0	130
5	888	0	133
5	1124	0	138
5	1230	0	138
5	1404	0	138
5	1574	0	140
5	1774	0	142
5	1876	0	142
5	2024	0	142
5	2418	0	142
5	2684	0	142
5	2792	0	142
5	3328	0	142
5	3832	0	142
5	4076	0	142
5	4400	0	142
5	4600	0	142
5	5040	0	142
5	5336	0	142
5	5352	0	142
5	5400	0	142
5	5800	0	142
5	6420	0	142
5	6640	0	142
5	6704	0	142
5	6720	0	142
5	6816	0	142
5	8568	0	142
5	9192	0	144
6	9	0	7
6	85	0	60
6	259	0	108
6	358	0	122
6	390	0	122
6	416	0	123
6	418	0	123
6	420	0	123
6	460	0	123
6	505	0	124
6	556	0	125
6	605	0	128
6	663	0	129
6	733	0	130
6	833	0	132
6	847	0	132
6	950	0	133
6	971	0	133
6	1040	0	134
6	1066	0	134
6	1138	0	138
6	1430	0	138
6	1490	0	138
6	1848	0	142
6	1972	0	142
6	1976	0	142
6	2056	0	142
6	2354	0	142
6	3296	0	142
6	3396	0	142
6	3456	0	142
6	3892	0	142
6	4136	0	142
6	4212	0	142
6	4516	0	142
6	5064	0	142
6	5168	0	142
6	5320	0	142
6	6136	0	142
6	6692	0	142
6	7792	0	142
6	8656	0	142
6	8744	0	142
6	8864	0	144
6	8880	0	144
6	9584	0	144
6	10312	0	144
6	10720	0	144
7	10	0	8
7	19	0	16
7	84	0	60
7	173	0	93
7	180	0	94
7	357	0	122
7	557	0	125
7	606	0	128
7	642	0	128
7	646	0	128
7	876	0	133
7	924	0	133
7	982	0	133
7	995	0	133
7	1390	0	138
7	1922	0	142
7	1984	0	142
7	1988	0	142
7	2102	0	142
7	2658	0	142
7	2808	0	142
7	3460	0	142
7	3504	0	142
7	3596	0	142
7	3768	0	142
7	3936	0	142
7	4024	0	142
7	4176	0	142
7	4356	0	142
7	4628	0	142
7	4788	0	142
7	4932	0	142
7	4960	0	142
7	5152	0	142
7	5944	0	142
7	6432	0	142
7	6628	0	142
7	6924	0	142
7	7104	0	142
7	7312	0	142
7	7904	0	142
7	7920	0	142
7	8784	0	142
7	9608	0	144
7	10288	0	144
7	10304	0	144
7	11472	0	144
8	11	0	9
8	166	0	92
8	204	0	95
8	335	0	121
8	337	0	121
8	353	0	122
8	521	0	124
8	633	0	128
8	688	0	130
8	702	0	130
8	751	0	130
8	831	0	132
8	877	0	133
8	904	0	133
8	934	0	133
8	969	0	133
8	1054	0	134
8	1908	0	142
8	1944	0	142
8	2066	0	142
8	2108	0	142
8	2166	0	142
8	2186	0	142
8	2272	0	142
8	2332	0	142
8	2362	0	142
8	2456	0	142
8	2472	0	142
8	2492	0	142
8	2646	0	142
8	2680	0	142
8	2786	0	142
8	2812	0	142
8	2830	0	142
8	3376	0	142
8	3384	0	142
8	3932	0	142
8	4248	0	142
8	4888	0	142
8	5008	0	142
8	5436	0	142
8	5504	0	142
8	5692	0	142
8	5808	0	142
8	5936	0	142
8	6440	0	142
8	6764	0	142
8	7176	0	142
8	7288	0	142
8	8000	0	142
8	8896	0	144
8	9208	0	144
8	10264	0	144
8	11136	0	144
8	11376	0	144
9	12	0	10
9	306	0	118
9	685	0	129
9	890	0	133
9	1374	0	138
9	1468	0	138
9	1472	0	138
9	2276	0	142
9	2300	0	142
9	4700	0	142
9	4820	0	142
9	4920	0	142
9	5456	0	142
9	5688	0	142
9	6744	0	142
9	6768	0	142
9	7016	0	142
9	11784	0	144
10	13	0	11
10	202	0	95
10	738	0	130
10	2134	0	142
10	2302	0	142
10	2430	0	142
10	2552	0	142
10	3252	0	142
10	3272	0	142
10	3812	0	142
10	4656	0	142
10	5920	0	142
10	6076	0	142
10	7272	0	142
10	11704	0	144
11	14	0	12
11	546	0	125
11	585	0	128
11	603	0	128
11	817	0	132
11	893	0	133
11	1002	0	133
11	1006	0	133
11	1242	0	138
11	1596	0	140
11	1670	0	140
11	1806	0	142
11	1820	0	142
11	2124	0	142
11	2188	0	142
11	2558	0	142
11	3796	0	142
11	4108	0	142
11	4272	0	142
11	4384	0	142
11	4660	0	142
11	4724	0	142
11	5028	0	142
11	5908	0	142
11	7160	0	142
11	8032	0	142
11	11560	0	144
11	11608	0	144
11	11744	0	144
12	15	0	13
12	686	0	129
12	801	0	132
12	2556	0	142
12	6204	0	142
12	6400	0	142
12	7216	0	142
12	9328	0	144
12	11592	0	144
13	16	0	14
13	135	0	85
13	1144	0	138
13	1668	0	140
13	1780	0	142
13	2360	0	142
13	2544	0	142
13	2550	0	142
13	3244	0	142
13	3380	0	142
13	4240	0	142
13	4380	0	142
13	4664	0	142
13	5024	0	142
13	5440	0	142
13	5764	0	142
13	11584	0	144
14	17	0	15
14	126	0	79
14	128	0	80
14	205	0	95
14	244	0	106
14	281	0	110
14	525	0	124
14	547	0	125
14	742	0	130
14	804	0	132
14	814	0	132
14	940	0	133
14	1010	0	134
14	1052	0	134
14	1592	0	140
14	1994	0	142
14	2130	0	142
14	2490	0	142
14	2494	0	142
14	2590	0	142
14	2804	0	142
14	3260	0	142
14	3404	0	142
14	3788	0	142
14	3828	0	142
14	4564	0	142
14	4632	0	142
14	5052	0	142
14	5348	0	142
14	5620	0	142
14	6016	0	142
14	6088	0	142
14	6108	0	142
14	6184	0	142
14	6284	0	142
14	6476	0	142
14	6516	0	142
14	7192	0	142
14	8848	0	142
14	9176	0	144
14	9360	0	144
14	10232	0	144
14	11248	0	144
14	11280	0	144
14	11448	0	144
14	11688	0	144
15	18	0	16
15	246	0	106
15	360	0	122
15	549	0	125
15	653	0	128
15	849	0	132
15	872	0	133
15	1176	0	138
15	1432	0	138
15	1692	0	140
15	1700	0	140
15	1894	0	142
15	2280	0	142
15	2402	0	142
15	2512	0	142
15	2588	0	142
15	2782	0	142
15	3664	0	142
15	4020	0	142
15	4072	0	142
15	4476	0	142
15	5036	0	142
15	5096	0	142
15	6480	0	142
15	7488	0	142
15	8536	0	142
15	8984	0	144
15	9288	0	144
15	11408	0	144
16	21	0	17
16	36	0	27
16	75	0	53
16	97	0	68
16	286	0	110
16	486	0	123
16	561	0	125
16	588	0	128
16	622	0	128
16	665	0	129
16	853	0	132
16	1636	0	140
16	1652	0	140
16	1694	0	140
16	1750	0	140
16	1870	0	142
16	2008	0	142
16	2156	0	142
16	2260	0	142
16	2460	0	142
16	2692	0	142
16	2920	0	142
16	2942	0	142
16	3608	0	142
16	3616	0	142
16	3956	0	142
16	4028	0	142
16	4968	0	142
16	5044	0	142
16	5496	0	142
16	5564	0	142
16	6464	0	142
16	6588	0	142
16	6800	0	142
16	6836	0	142
16	7328	0	142
16	7512	0	142
16	7712	0	142
16	7848	0	142
16	8440	0	142
16	9240	0	144
17	22	0	18
17	32	0	24
17	108	0	72
17	150	0	89
17	207	0	95
17	229	0	105
17	376	0	122
17	380	0	122
17	456	0	123
17	484	0	123
17	487	0	123
17	497	0	124
17	590	0	128
17	670	0	129
17	680	0	129
17	701	0	130
17	745	0	130
17	756	0	130
17	909	0	133
17	976	0	133
17	1170	0	138
17	1328	0	138
17	1378	0	138
17	1426	0	138
17	1640	0	140
17	1662	0	140
17	1686	0	140
17	1816	0	142
17	1860	0	142
17	1880	0	142
17	2372	0	142
17	2566	0	142
17	2614	0	142
17	2748	0	142
17	2756	0	142
17	2814	0	142
17	2850	0	142
17	3188	0	142
17	3208	0	142
17	3304	0	142
17	3352	0	142
17	3572	0	142
17	3712	0	142
17	3952	0	142
17	4088	0	142
17	4208	0	142
17	4364	0	142
17	4892	0	142
17	4900	0	142
17	5208	0	142
17	5532	0	142
17	5728	0	142
17	5748	0	142
17	6144	0	142
17	6792	0	142
17	6956	0	142
17	7424	0	142
17	7504	0	142
17	7960	0	142
17	8632	0	142
17	8816	0	142
17	9880	0	144
17	9896	0	144
17	10120	0	144
17	10144	0	144
17	10528	0	144
17	11168	0	144
18	23	0	19
18	195	0	94
18	230	0	105
18	428	0	123
18	493	0	124
18	528	0	124
18	693	0	130
18	980	0	133
18	1122	0	138
18	1348	0	138
18	1570	0	140
18	1924	0	142
18	1934	0	142
18	1950	0	142
18	2196	0	142
18	2376	0	142
18	2848	0	142
18	3708	0	142
18	4340	0	142
18	4348	0	142
18	4532	0	142
18	5220	0	142
18	5248	0	142
18	5576	0	142
18	5600	0	142
18	5784	0	142
18	5884	0	142
18	6644	0	142
18	8616	0	142
18	9664	0	144
18	9680	0	144
18	9768	0	144
18	10384	0	144
18	10672	0	144
18	11016	0	144
19	24	0	20
19	87	0	60
19	114	0	74
19	255	0	108
19	271	0	109
19	381	0	122
19	413	0	123
19	468	0	123
19	628	0	128
19	637	0	128
19	641	0	128
19	725	0	130
19	809	0	132
19	852	0	132
19	874	0	133
19	914	0	133
19	948	0	133
19	951	0	133
19	1436	0	138
19	1504	0	138
19	1644	0	140
19	1698	0	140
19	2268	0	142
19	2474	0	142
19	2612	0	142
19	2736	0	142
19	3192	0	142
19	3320	0	142
19	3624	0	142
19	3888	0	142
19	4940	0	142
19	5184	0	142
19	5780	0	142
19	5804	0	142
19	5880	0	142
19	5964	0	142
19	6048	0	142
19	6412	0	142
19	6940	0	142
19	7384	0	142
19	7432	0	142
19	8728	0	142
19	9544	0	144
19	9624	0	144
19	9800	0	144
19	10472	0	144
19	10904	0	144
19	10944	0	144
19	11336	0	144
20	25	0	21
20	141	0	88
20	175	0	93
20	232	0	105
20	316	0	118
20	499	0	124
20	644	0	128
20	661	0	129
20	731	0	130
20	892	0	133
20	1030	0	134
20	1516	0	138
20	1682	0	140
20	1718	0	140
20	2020	0	142
20	2178	0	142
20	2326	0	142
20	2484	0	142
20	2610	0	142
20	2642	0	142
20	3972	0	142
20	4000	0	142
20	4148	0	142
20	5232	0	142
20	5776	0	142
20	5832	0	142
20	6000	0	142
20	6832	0	142
20	8576	0	142
20	8752	0	142
20	9304	0	144
20	9888	0	144
20	10352	0	144
20	10800	0	144
20	11400	0	144
20	11760	0	144
21	26	0	22
21	28	0	22
21	83	0	60
21	140	0	88
21	289	0	111
21	355	0	122
21	435	0	123
21	449	0	123
21	535	0	124
21	724	0	130
21	845	0	132
21	1012	0	134
21	1126	0	138
21	1336	0	138
21	1714	0	140
21	1840	0	142
21	2182	0	142
21	2408	0	142
21	2602	0	142
21	2742	0	142
21	4824	0	142
21	5124	0	142
21	5816	0	142
21	5912	0	142
21	7040	0	142
21	7456	0	142
21	7760	0	142
21	8592	0	142
21	9528	0	144
21	10008	0	144
21	10192	0	144
21	11792	0	144
22	30	0	23
22	100	0	69
22	110	0	73
22	169	0	93
22	186	0	94
22	278	0	110
22	283	0	110
22	328	0	121
22	364	0	122
22	407	0	123
22	425	0	123
22	458	0	123
22	470	0	123
22	509	0	124
22	807	0	132
22	818	0	132
22	898	0	133
22	901	0	133
22	908	0	133
22	967	0	133
22	1322	0	138
22	1326	0	138
22	1330	0	138
22	1630	0	140
22	1716	0	140
22	1952	0	142
22	1962	0	142
22	2572	0	142
22	2822	0	142
22	2930	0	142
22	3464	0	142
22	3660	0	142
22	3960	0	142
22	4776	0	142
22	4796	0	142
22	4904	0	142
22	5000	0	142
22	5328	0	142
22	5484	0	142
22	5940	0	142
22	6716	0	142
22	7240	0	142
22	7496	0	142
22	11112	0	144
22	11200	0	144
23	31	0	24
23	151	0	89
23	156	0	89
23	287	0	110
23	332	0	121
23	365	0	122
23	377	0	122
23	447	0	123
23	457	0	123
23	495	0	124
23	502	0	124
23	550	0	125
23	604	0	128
23	660	0	129
23	666	0	129
23	703	0	130
23	712	0	130
23	720	0	130
23	728	0	130
23	1462	0	138
23	1656	0	140
23	2476	0	142
23	2522	0	142
23	3520	0	142
23	4300	0	142
23	4388	0	142
23	4528	0	142
23	4672	0	142
23	4692	0	142
23	4984	0	142
23	5428	0	142
23	5848	0	142
23	6164	0	142
23	6444	0	142
23	6828	0	142
23	7136	0	142
23	8976	0	144
23	9168	0	144
23	9384	0	144
23	9480	0	144
23	9832	0	144
23	10000	0	144
23	10016	0	144
23	10056	0	144
23	10464	0	144
23	10952	0	144
24	33	0	25
24	112	0	73
24	231	0	105
24	234	0	106
24	238	0	106
24	340	0	121
24	369	0	122
24	494	0	124
24	534	0	124
24	560	0	125
24	614	0	128
24	667	0	129
24	672	0	129
24	713	0	130
24	878	0	133
24	1018	0	134
24	1024	0	134
24	1150	0	138
24	1618	0	140
24	2082	0	142
24	2106	0	142
24	2174	0	142
24	2570	0	142
24	2746	0	142
24	3356	0	142
24	3372	0	142
24	4100	0	142
24	4764	0	142
24	4880	0	142
24	5128	0	142
24	5276	0	142
24	5720	0	142
24	5888	0	142
24	5988	0	142
24	6668	0	142
24	6676	0	142
24	6804	0	142
24	7864	0	142
24	8552	0	142
24	9448	0	144
24	9728	0	144
24	10592	0	144
24	10920	0	144
25	34	0	26
25	184	0	94
25	276	0	110
25	341	0	121
25	440	0	123
25	592	0	128
25	627	0	128
25	854	0	132
25	932	0	133
25	1690	0	140
25	2144	0	142
25	2258	0	142
25	2398	0	142
25	2622	0	142
25	3772	0	142
25	4320	0	142
25	5644	0	142
25	6540	0	142
25	7728	0	142
25	7832	0	142
25	7880	0	142
25	7896	0	142
25	9560	0	144
25	9816	0	144
25	10488	0	144
25	11040	0	144
25	11056	0	144
25	11480	0	144
26	35	0	27
26	50	0	39
26	69	0	50
26	403	0	123
26	422	0	123
26	859	0	132
26	866	0	132
26	1730	0	140
26	1734	0	140
26	2052	0	142
26	2388	0	142
26	6908	0	142
26	7584	0	142
26	7824	0	142
26	8064	0	142
26	8432	0	142
26	9088	0	144
26	11864	0	144
27	37	0	28
27	165	0	92
27	209	0	95
27	245	0	106
27	409	0	123
27	429	0	123
27	483	0	123
27	559	0	125
27	582	0	128
27	697	0	130
27	706	0	130
27	718	0	130
27	723	0	130
27	768	0	130
27	879	0	133
27	887	0	133
27	1182	0	138
27	1346	0	138
27	1358	0	138
27	1604	0	140
27	2010	0	142
27	2454	0	142
27	2562	0	142
27	2600	0	142
27	2730	0	142
27	3512	0	142
27	4336	0	142
27	5004	0	142
27	5076	0	142
27	5084	0	142
27	5868	0	142
27	5876	0	142
27	6124	0	142
27	6380	0	142
27	6416	0	142
27	6708	0	142
27	6760	0	142
27	7088	0	142
27	7400	0	142
27	9224	0	144
27	9536	0	144
27	9696	0	144
27	11128	0	144
28	38	0	29
28	122	0	76
28	555	0	125
28	563	0	125
28	648	0	128
28	750	0	130
28	843	0	132
28	871	0	133
28	1042	0	134
28	1062	0	134
28	1140	0	138
28	1368	0	138
28	1680	0	140
28	1784	0	142
28	2140	0	142
28	2468	0	142
28	2586	0	142
28	2604	0	142
28	3228	0	142
28	3684	0	142
28	3740	0	142
28	3924	0	142
28	4104	0	142
28	4244	0	142
28	4432	0	142
28	4816	0	142
28	5356	0	142
28	5364	0	142
28	5480	0	142
28	5704	0	142
28	6012	0	142
28	6168	0	142
28	7248	0	142
28	8856	0	143
28	11544	0	144
28	11632	0	144
28	11776	0	144
29	39	0	30
29	105	0	70
29	142	0	88
29	336	0	121
29	366	0	122
29	438	0	123
29	541	0	124
29	584	0	128
29	632	0	128
29	758	0	130
29	805	0	132
29	841	0	132
29	944	0	133
29	1458	0	138
29	1672	0	140
29	1712	0	140
29	1722	0	140
29	1822	0	142
29	1996	0	142
29	2400	0	142
29	2506	0	142
29	2526	0	142
29	2616	0	142
29	2620	0	142
29	2840	0	142
29	3284	0	142
29	4064	0	142
29	4132	0	142
29	4268	0	142
29	4420	0	142
29	4460	0	142
29	4512	0	142
29	4576	0	142
29	5164	0	142
29	5980	0	142
29	7776	0	142
29	7800	0	142
29	8448	0	142
29	8808	0	142
29	9704	0	144
29	10280	0	144
29	10368	0	144
29	10976	0	144
29	11328	0	144
29	11752	0	144
30	40	0	31
30	101	0	69
30	432	0	123
30	441	0	123
30	599	0	128
30	696	0	130
30	763	0	130
30	870	0	133
30	1232	0	138
30	1660	0	140
30	1856	0	142
30	2264	0	142
30	2314	0	142
30	3224	0	142
30	3500	0	142
30	3896	0	142
30	4120	0	142
30	4260	0	142
30	4428	0	142
30	4436	0	142
30	4620	0	142
30	4848	0	142
30	4976	0	142
30	5412	0	142
30	5632	0	142
30	5716	0	142
30	5992	0	142
30	6140	0	142
30	6536	0	142
30	6600	0	142
30	8480	0	142
31	41	0	32
31	149	0	89
31	164	0	92
31	198	0	94
31	241	0	106
31	350	0	122
31	370	0	122
31	609	0	128
31	621	0	128
31	654	0	128
31	664	0	129
31	826	0	132
31	883	0	133
31	902	0	133
31	1070	0	134
31	1184	0	138
31	1344	0	138
31	1406	0	138
31	1586	0	140
31	1826	0	142
31	2150	0	142
31	2266	0	142
31	2316	0	142
31	2420	0	142
31	2478	0	142
31	3496	0	142
31	3876	0	142
31	4520	0	142
31	5132	0	142
31	5540	0	142
31	6056	0	142
31	6132	0	142
31	6356	0	142
31	6384	0	142
31	6460	0	142
31	7112	0	142
31	7784	0	142
31	7872	0	142
31	9872	0	144
31	10736	0	144
31	10792	0	144
32	42	0	33
32	144	0	88
32	620	0	128
32	1186	0	138
32	2148	0	142
32	5636	0	142
32	6352	0	142
32	8200	0	142
32	9120	0	144
32	9152	0	144
32	9920	0	144
32	10320	0	144
33	43	0	34
33	47	0	37
33	400	0	123
33	1188	0	138
33	2714	0	142
34	44	0	35
34	59	0	44
34	401	0	123
34	860	0	132
34	863	0	132
34	2234	0	142
34	2384	0	142
34	2952	0	142
34	2982	0	142
34	6312	0	142
34	6580	0	142
34	7552	0	142
34	7616	0	142
34	8288	0	142
34	8392	0	142
34	10424	0	144
35	45	0	36
35	70	0	50
35	398	0	123
35	2232	0	142
35	2390	0	142
35	2978	0	142
35	2990	0	142
35	2998	0	142
35	6316	0	142
35	7624	0	142
35	8088	0	142
35	8168	0	142
35	8368	0	142
35	9024	0	144
36	46	0	37
36	51	0	39
36	861	0	132
36	1190	0	138
36	1558	0	139
36	1564	0	139
36	1732	0	140
36	2042	0	142
36	2708	0	142
36	2956	0	142
36	6844	0	142
36	6856	0	142
36	6864	0	142
36	7672	0	142
36	8128	0	142
37	48	0	38
37	60	0	44
37	864	0	132
37	1204	0	138
37	2040	0	142
37	2202	0	142
37	2212	0	142
37	2216	0	142
37	2252	0	142
37	2704	0	142
37	2716	0	142
37	2950	0	142
37	2962	0	142
37	2970	0	142
37	2976	0	142
37	2988	0	142
37	6848	0	142
37	7560	0	142
37	8216	0	142
37	9080	0	144
37	9104	0	144
37	9144	0	144
38	49	0	39
38	74	0	53
38	396	0	123
38	402	0	123
38	1082	0	134
38	1220	0	138
38	1556	0	139
38	1566	0	139
38	2050	0	142
38	2230	0	142
38	2944	0	142
38	6852	0	142
38	6868	0	142
38	7576	0	142
39	52	0	40
39	54	0	41
39	566	0	125
39	573	0	127
39	858	0	132
39	865	0	132
39	1116	0	137
39	1208	0	138
39	1548	0	139
39	1562	0	139
39	2030	0	142
39	2036	0	142
39	2240	0	142
39	2954	0	142
39	2958	0	142
39	2984	0	142
39	6304	0	142
39	6320	0	142
39	6544	0	142
39	6916	0	142
39	7600	0	142
39	7696	0	142
39	8240	0	142
39	8384	0	142
39	11064	0	144
40	53	0	41
40	399	0	123
40	423	0	123
40	1222	0	138
40	1538	0	139
40	2146	0	142
40	2204	0	142
40	6892	0	142
40	7680	0	142
40	9128	0	144
41	55	0	42
41	65	0	48
41	574	0	127
41	1108	0	137
41	1536	0	139
41	1540	0	139
41	1554	0	139
41	1560	0	139
41	2210	0	142
41	2698	0	142
41	2712	0	142
41	6880	0	142
42	56	0	43
42	58	0	44
42	1114	0	137
42	1198	0	138
42	1210	0	138
42	1552	0	139
42	1728	0	140
42	2246	0	142
42	2724	0	142
42	6324	0	142
42	6548	0	142
42	6860	0	142
42	6876	0	142
42	6904	0	142
42	9064	0	144
42	9096	0	144
42	11080	0	144
43	57	0	44
43	67	0	49
43	397	0	123
43	571	0	126
43	1194	0	138
43	1206	0	138
43	2236	0	142
43	6564	0	142
43	8176	0	142
43	8264	0	142
44	61	0	45
44	1106	0	137
44	6348	0	142
44	6568	0	142
44	8152	0	142
44	8192	0	142
44	8280	0	142
44	9112	0	144
45	62	0	46
45	570	0	126
45	1196	0	138
45	2044	0	142
45	2214	0	142
45	2218	0	142
45	2718	0	142
45	2992	0	142
45	2996	0	142
45	6576	0	142
45	8144	0	142
45	8272	0	142
45	8304	0	142
45	9048	0	144
46	63	0	47
46	1534	0	139
46	1542	0	139
46	1550	0	139
46	2048	0	142
46	2946	0	142
46	6884	0	142
46	6912	0	142
46	8104	0	142
46	8120	0	142
46	8160	0	142
46	8360	0	142
46	9056	0	144
46	9072	0	144
47	64	0	48
47	568	0	125
47	1090	0	134
47	1094	0	134
47	1112	0	137
47	2226	0	142
47	2248	0	142
47	2722	0	142
47	2974	0	142
47	2980	0	142
47	6344	0	142
47	8096	0	142
47	8112	0	142
47	8184	0	142
47	8408	0	142
48	66	0	49
48	1110	0	137
48	2046	0	142
48	2222	0	142
48	8344	0	142
49	68	0	50
49	575	0	127
49	857	0	132
49	1088	0	134
49	1212	0	138
49	1216	0	138
49	1224	0	138
49	1736	0	140
49	2034	0	142
49	2700	0	142
49	2706	0	142
49	8400	0	142
49	9136	0	144
49	11072	0	144
50	71	0	51
50	567	0	125
50	1098	0	135
50	1546	0	139
50	1738	0	140
50	1742	0	140
50	2228	0	142
50	2242	0	142
50	3000	0	142
50	6336	0	142
50	7632	0	142
50	7656	0	142
50	8072	0	142
50	8232	0	142
50	8424	0	142
51	72	0	52
51	1200	0	138
51	2244	0	142
51	6332	0	142
51	7640	0	142
52	73	0	53
52	530	0	124
52	1740	0	140
52	6328	0	142
52	6900	0	142
53	76	0	54
53	176	0	93
53	349	0	122
53	352	0	122
53	356	0	122
53	385	0	122
53	448	0	123
53	504	0	124
53	580	0	128
53	583	0	128
53	694	0	130
53	759	0	130
53	931	0	133
53	949	0	133
53	1014	0	134
53	1022	0	134
53	1072	0	134
53	1250	0	138
53	1868	0	142
53	1888	0	142
53	2346	0	142
53	2578	0	142
53	2634	0	142
53	2644	0	142
53	3136	0	142
53	3332	0	142
53	3636	0	142
53	4092	0	142
53	4288	0	142
53	4536	0	142
53	4684	0	142
53	5088	0	142
53	5116	0	142
53	5176	0	142
53	6120	0	142
53	8504	0	142
53	8560	0	142
53	8640	0	142
53	8776	0	142
53	9984	0	144
53	10248	0	144
53	10640	0	144
53	10960	0	144
53	11848	0	144
54	77	0	55
54	111	0	73
54	143	0	88
54	199	0	94
54	243	0	106
54	268	0	109
54	455	0	123
54	598	0	128
54	612	0	128
54	746	0	130
54	838	0	132
54	1248	0	138
54	1434	0	138
54	1600	0	140
54	1766	0	142
54	1918	0	142
54	1974	0	142
54	2142	0	142
54	2288	0	142
54	2336	0	142
54	2482	0	142
54	2508	0	142
54	2770	0	142
54	2838	0	142
54	3344	0	142
54	3452	0	142
54	3732	0	142
54	3760	0	142
54	4284	0	142
54	4392	0	142
54	4556	0	142
54	4744	0	142
54	4844	0	142
54	5396	0	142
54	6388	0	142
54	6596	0	142
54	9968	0	144
54	10824	0	144
54	11160	0	144
55	78	0	56
55	104	0	70
55	226	0	104
55	249	0	106
55	275	0	110
55	277	0	110
55	315	0	118
55	581	0	128
55	636	0	128
55	729	0	130
55	806	0	132
55	834	0	132
55	991	0	133
55	1134	0	138
55	1154	0	138
55	1178	0	138
55	1324	0	138
55	1584	0	140
55	1658	0	140
55	1810	0	142
55	2018	0	142
55	2270	0	142
55	2422	0	142
55	3884	0	142
55	4008	0	142
55	4140	0	142
55	4324	0	142
55	4928	0	142
55	5060	0	142
55	5260	0	142
55	5324	0	142
55	6604	0	142
55	8736	0	142
55	8824	0	142
55	11392	0	144
56	79	0	57
56	152	0	89
56	157	0	89
56	178	0	93
56	189	0	94
56	261	0	108
56	280	0	110
56	282	0	110
56	333	0	121
56	430	0	123
56	466	0	123
56	479	0	123
56	699	0	130
56	708	0	130
56	716	0	130
56	744	0	130
56	767	0	130
56	822	0	132
56	848	0	132
56	886	0	133
56	941	0	133
56	972	0	133
56	987	0	133
56	990	0	133
56	1152	0	138
56	1332	0	138
56	1408	0	138
56	1620	0	140
56	1912	0	142
56	1958	0	142
56	2064	0	142
56	2406	0	142
56	2458	0	142
56	2528	0	142
56	2568	0	142
56	2760	0	142
56	3360	0	142
56	3484	0	142
56	3560	0	142
56	3604	0	142
56	3704	0	142
56	4012	0	142
56	4456	0	142
56	4864	0	142
56	5056	0	142
56	5204	0	142
56	5408	0	142
56	5508	0	142
56	5524	0	142
56	5592	0	142
56	5828	0	142
56	5864	0	142
56	6040	0	142
56	6128	0	142
56	6152	0	142
56	6296	0	142
56	6936	0	142
56	6972	0	142
56	7352	0	142
56	8992	0	144
56	9464	0	144
56	10128	0	144
56	10448	0	144
56	10648	0	144
56	10744	0	144
56	10776	0	144
56	11224	0	144
57	80	0	58
57	1266	0	138
57	1314	0	138
57	1442	0	138
57	1520	0	138
57	2366	0	142
57	4592	0	142
57	7064	0	142
57	7464	0	142
57	7992	0	142
57	8912	0	144
58	81	0	59
58	291	0	112
58	1268	0	138
58	1280	0	138
58	1288	0	138
58	1292	0	138
58	2884	0	142
58	2902	0	142
59	82	0	60
59	305	0	118
59	1276	0	138
59	1284	0	138
59	1294	0	138
59	1300	0	138
59	2866	0	142
59	2898	0	142
59	4704	0	142
59	7448	0	142
60	88	0	61
60	132	0	83
60	182	0	94
60	339	0	121
60	518	0	124
60	676	0	129
60	835	0	132
60	885	0	133
60	906	0	133
60	996	0	133
60	1036	0	134
60	1058	0	134
60	1064	0	134
60	1076	0	134
60	1172	0	138
60	1498	0	138
60	1502	0	138
60	1510	0	138
60	1850	0	142
60	1854	0	142
60	1864	0	142
60	1900	0	142
60	2088	0	142
60	2122	0	142
60	2466	0	142
60	2750	0	142
60	2934	0	142
60	3340	0	142
60	3444	0	142
60	3640	0	142
60	3900	0	142
60	3920	0	142
60	4752	0	142
60	4828	0	142
60	4944	0	142
60	5332	0	142
60	5476	0	142
60	5696	0	142
60	5760	0	142
60	5824	0	142
60	5856	0	142
60	5932	0	142
60	6092	0	142
60	6408	0	142
60	6736	0	142
60	6968	0	142
60	7768	0	142
60	8584	0	142
60	8648	0	142
60	9848	0	144
60	11144	0	144
60	11256	0	144
60	11368	0	144
60	11808	0	144
61	90	0	62
61	103	0	70
61	154	0	89
61	168	0	93
61	190	0	94
61	208	0	95
61	256	0	108
61	312	0	118
61	388	0	122
61	421	0	123
61	452	0	123
61	472	0	123
61	500	0	124
61	631	0	128
61	668	0	129
61	678	0	129
61	714	0	130
61	734	0	130
61	837	0	132
61	869	0	133
61	937	0	133
61	973	0	133
61	1580	0	140
61	1588	0	140
61	1724	0	140
61	2054	0	142
61	2504	0	142
61	2534	0	142
61	2676	0	142
61	2772	0	142
61	2854	0	142
61	3612	0	142
61	4168	0	142
61	4196	0	142
61	4220	0	142
61	4360	0	142
61	4584	0	142
61	4676	0	142
61	4756	0	142
61	5180	0	142
61	5292	0	142
61	5316	0	142
61	5384	0	142
61	5756	0	142
61	5836	0	142
61	6052	0	142
61	6508	0	142
61	6992	0	142
61	7128	0	142
61	7528	0	142
61	7720	0	142
61	8544	0	142
61	8608	0	142
61	8624	0	142
61	9392	0	144
61	9744	0	144
61	10088	0	144
61	10456	0	144
61	10480	0	144
61	10728	0	144
61	11856	0	144
62	91	0	63
62	310	0	118
62	375	0	122
62	394	0	122
62	478	0	123
62	589	0	128
62	640	0	128
62	659	0	129
62	671	0	129
62	707	0	130
62	824	0	132
62	1132	0	138
62	1156	0	138
62	1392	0	138
62	1396	0	138
62	1400	0	138
62	2006	0	142
62	2318	0	142
62	2452	0	142
62	2728	0	142
62	2924	0	142
62	3532	0	142
62	3656	0	142
62	4936	0	142
62	5588	0	142
62	5660	0	142
62	5744	0	142
62	5844	0	142
62	5968	0	142
62	6648	0	142
62	6928	0	142
62	7000	0	142
62	7360	0	142
62	8944	0	144
62	9992	0	144
62	10680	0	144
63	92	0	64
63	194	0	94
63	405	0	123
63	475	0	123
63	529	0	124
63	531	0	124
63	658	0	129
63	1746	0	140
63	3176	0	142
63	9776	0	144
64	93	0	65
64	192	0	94
64	477	0	123
64	1158	0	138
64	1352	0	138
64	5740	0	142
64	9656	0	144
64	10688	0	144
65	94	0	66
65	236	0	106
65	513	0	124
65	917	0	133
65	1756	0	140
65	2320	0	142
65	3860	0	142
65	5196	0	142
65	5224	0	142
65	9648	0	144
65	10392	0	144
65	10560	0	144
65	10616	0	144
65	10760	0	144
66	95	0	67
66	193	0	94
66	532	0	124
66	552	0	125
66	1168	0	138
66	1648	0	140
66	1748	0	140
66	2198	0	142
66	2342	0	142
66	2594	0	142
66	2664	0	142
66	2816	0	142
66	2846	0	142
66	3172	0	142
66	3184	0	142
66	3844	0	142
66	3852	0	142
66	3868	0	142
66	4612	0	142
66	4896	0	142
66	4992	0	142
66	5216	0	142
66	5244	0	142
66	5288	0	142
66	5672	0	142
66	6032	0	142
66	6980	0	142
66	7744	0	142
66	7952	0	142
66	9640	0	144
66	9792	0	144
66	10400	0	144
66	10664	0	144
66	10992	0	144
67	96	0	68
67	174	0	93
67	263	0	109
67	467	0	123
67	488	0	123
67	527	0	124
67	727	0	130
67	808	0	132
67	926	0	133
67	1522	0	138
67	1646	0	140
67	2348	0	142
67	2374	0	142
67	2518	0	142
67	2928	0	142
67	4448	0	142
67	4540	0	142
67	4988	0	142
67	4996	0	142
67	5200	0	142
67	5608	0	142
67	6812	0	142
67	6824	0	142
67	6984	0	142
67	8600	0	142
67	10080	0	144
67	10104	0	144
67	10624	0	144
68	98	0	69
68	137	0	86
68	225	0	104
68	334	0	121
68	348	0	122
68	473	0	123
68	533	0	124
68	551	0	125
68	553	0	125
68	623	0	128
68	692	0	130
68	823	0	132
68	884	0	133
68	900	0	133
68	984	0	133
68	1252	0	138
68	1482	0	138
68	1608	0	140
68	1654	0	140
68	1688	0	140
68	1940	0	142
68	1948	0	142
68	2004	0	142
68	2076	0	142
68	2656	0	142
68	2820	0	142
68	2844	0	142
68	3528	0	142
68	3652	0	142
68	4296	0	142
68	4304	0	142
68	4312	0	142
68	4328	0	142
68	4856	0	142
68	4956	0	142
68	5156	0	142
68	5240	0	142
68	5676	0	142
68	5900	0	142
68	6372	0	142
68	6496	0	142
68	6712	0	142
68	6944	0	142
68	7032	0	142
68	8520	0	142
68	8872	0	144
68	11800	0	144
69	102	0	70
69	119	0	76
69	240	0	106
69	342	0	121
69	426	0	123
69	442	0	123
69	522	0	124
69	537	0	124
69	613	0	128
69	677	0	129
69	722	0	130
69	769	0	130
69	832	0	132
69	923	0	133
69	947	0	133
69	952	0	133
69	1026	0	134
69	1180	0	138
69	1228	0	138
69	1360	0	138
69	1366	0	138
69	1812	0	142
69	2170	0	142
69	2608	0	142
69	2626	0	142
69	2842	0	142
69	3316	0	142
69	3488	0	142
69	3516	0	142
69	3564	0	142
69	3976	0	142
69	4032	0	142
69	4144	0	142
69	4216	0	142
69	4316	0	142
69	4768	0	142
69	4884	0	142
69	5652	0	142
69	5680	0	142
69	6004	0	142
69	6024	0	142
69	6156	0	142
69	6436	0	142
69	8496	0	142
69	8688	0	142
69	8840	0	142
69	9160	0	144
69	9368	0	144
69	9456	0	144
69	9808	0	144
69	9928	0	144
69	10032	0	144
69	10240	0	144
69	10784	0	144
69	10928	0	144
69	10968	0	144
69	11816	0	144
70	106	0	71
70	251	0	107
70	317	0	118
70	338	0	121
70	463	0	123
70	517	0	124
70	595	0	128
70	669	0	129
70	715	0	130
70	839	0	132
70	921	0	133
70	974	0	133
70	981	0	133
70	983	0	133
70	1590	0	140
70	1624	0	140
70	1702	0	140
70	2410	0	142
70	2496	0	142
70	2520	0	142
70	2800	0	142
70	2828	0	142
70	3196	0	142
70	3668	0	142
70	4096	0	142
70	4468	0	142
70	4804	0	142
70	5268	0	142
70	5516	0	142
70	5628	0	142
70	5956	0	142
70	6428	0	142
70	6512	0	142
70	6520	0	142
70	6684	0	142
70	6960	0	142
70	7856	0	142
70	8048	0	142
70	8488	0	142
70	8712	0	142
70	9600	0	144
70	10112	0	144
70	10816	0	144
70	11176	0	144
70	11344	0	144
71	107	0	72
71	172	0	93
71	191	0	94
71	237	0	106
71	393	0	122
71	474	0	123
71	630	0	128
71	919	0	133
71	925	0	133
71	975	0	133
71	978	0	133
71	994	0	133
71	1160	0	138
71	1350	0	138
71	1398	0	138
71	1410	0	138
71	1416	0	138
71	2158	0	142
71	2370	0	142
71	2674	0	142
71	3204	0	142
71	3620	0	142
71	4588	0	142
71	4908	0	142
71	5280	0	142
71	5552	0	142
71	5604	0	142
71	8928	0	144
71	9632	0	144
71	9952	0	144
71	10152	0	144
71	10176	0	144
72	109	0	73
72	115	0	74
72	161	0	90
72	177	0	93
72	319	0	118
72	321	0	118
72	392	0	122
72	406	0	123
72	516	0	124
72	578	0	128
72	629	0	128
72	819	0	132
72	912	0	133
72	1020	0	134
72	1262	0	138
72	1318	0	138
72	1438	0	138
72	1446	0	138
72	1450	0	138
72	2378	0	142
72	2412	0	142
72	2690	0	142
72	2758	0	142
72	2818	0	142
72	2938	0	142
72	3780	0	142
72	4488	0	142
72	5284	0	142
72	5560	0	142
72	5596	0	142
72	5788	0	142
72	6976	0	142
72	7928	0	142
72	8936	0	144
72	10584	0	144
72	11008	0	144
72	11096	0	144
73	113	0	74
73	285	0	110
73	412	0	123
73	524	0	124
73	558	0	125
73	591	0	128
73	748	0	130
73	880	0	133
73	929	0	133
73	1388	0	138
73	1454	0	138
73	1638	0	140
73	1696	0	140
73	1878	0	142
73	1886	0	142
73	1898	0	142
73	1920	0	142
73	1960	0	142
73	1980	0	142
73	2014	0	142
73	2584	0	142
73	2754	0	142
73	2810	0	142
73	2834	0	142
73	2856	0	142
73	3736	0	142
73	3988	0	142
73	4084	0	142
73	4124	0	142
73	4720	0	142
73	5092	0	142
73	5308	0	142
73	5448	0	142
73	5752	0	142
73	6112	0	142
73	6468	0	142
73	6524	0	142
73	6624	0	142
73	7120	0	142
73	8464	0	142
73	9216	0	144
73	9264	0	144
73	9736	0	144
73	10936	0	144
73	11120	0	144
73	11352	0	144
73	11384	0	144
73	11504	0	144
73	11520	0	144
74	117	0	75
74	120	0	76
74	224	0	104
74	242	0	106
74	270	0	109
74	408	0	123
74	587	0	128
74	1506	0	138
74	1512	0	138
74	1872	0	142
74	2080	0	142
74	2118	0	142
74	2172	0	142
74	2282	0	142
74	2330	0	142
74	2532	0	142
74	2564	0	142
74	2648	0	142
74	3152	0	142
74	3388	0	142
74	3480	0	142
74	3568	0	142
74	3928	0	142
74	3940	0	142
74	4040	0	142
74	4060	0	142
74	4180	0	142
74	4200	0	142
74	4548	0	142
74	4876	0	142
74	5952	0	142
74	6096	0	142
74	6456	0	142
74	6620	0	142
74	6636	0	142
74	6660	0	142
74	6696	0	142
74	7296	0	142
74	7416	0	142
74	9552	0	144
74	9904	0	144
74	10040	0	144
74	10520	0	144
74	11152	0	144
74	11232	0	144
74	11456	0	144
75	118	0	76
75	506	0	124
75	662	0	129
75	985	0	133
75	2396	0	142
75	2836	0	142
75	3588	0	142
75	3948	0	142
75	5640	0	142
75	5648	0	142
75	7376	0	142
75	7688	0	142
75	9280	0	144
75	9864	0	144
75	9912	0	144
75	10344	0	144
75	10832	0	144
75	10848	0	144
75	11496	0	144
76	123	0	77
76	197	0	94
76	596	0	128
76	618	0	128
76	650	0	128
76	652	0	128
76	730	0	130
76	753	0	130
76	766	0	130
76	842	0	132
76	891	0	133
76	936	0	133
76	1028	0	134
76	1136	0	138
76	1148	0	138
76	1340	0	138
76	1460	0	138
76	1578	0	140
76	1632	0	140
76	1782	0	142
76	1808	0	142
76	1942	0	142
76	2290	0	142
76	2350	0	142
76	2424	0	142
76	2766	0	142
76	3964	0	142
76	4172	0	142
76	4780	0	142
76	4860	0	142
76	4916	0	142
76	5256	0	142
76	5304	0	142
76	5344	0	142
76	5452	0	142
76	5872	0	142
76	5892	0	142
76	6064	0	142
76	6116	0	142
76	6724	0	142
76	7144	0	142
76	8888	0	144
76	10504	0	144
76	11432	0	144
76	11464	0	144
77	124	0	78
77	411	0	123
77	737	0	130
77	740	0	130
77	889	0	133
77	1046	0	134
77	1384	0	138
77	1466	0	138
77	1678	0	140
77	2132	0	142
77	2136	0	142
77	2296	0	142
77	2426	0	142
77	2630	0	142
77	3236	0	142
77	3412	0	142
77	3688	0	142
77	5340	0	142
77	5368	0	142
77	6176	0	142
77	6396	0	142
77	6748	0	142
77	7280	0	142
77	11512	0	144
77	11648	0	144
78	125	0	79
78	739	0	130
78	802	0	132
78	1050	0	134
78	1372	0	138
78	1788	0	142
78	1802	0	142
78	2304	0	142
78	2554	0	142
78	3232	0	142
78	3680	0	142
78	9512	0	144
78	11304	0	144
78	11576	0	144
78	11736	0	144
79	127	0	80
79	187	0	94
79	206	0	95
79	266	0	109
79	331	0	121
79	347	0	122
79	414	0	123
79	562	0	125
79	679	0	129
79	689	0	130
79	840	0	132
79	905	0	133
79	907	0	133
79	1364	0	138
79	1874	0	142
79	2094	0	142
79	2598	0	142
79	2778	0	142
79	2918	0	142
79	3212	0	142
79	3672	0	142
79	3968	0	142
79	4004	0	142
79	4800	0	142
79	4852	0	142
79	4948	0	142
79	5500	0	142
79	5860	0	142
79	6104	0	142
79	6592	0	142
79	6608	0	142
79	6672	0	142
79	7232	0	142
79	8672	0	142
79	8792	0	142
79	9432	0	144
79	10256	0	144
79	10336	0	144
79	11528	0	144
80	129	0	81
80	684	0	129
80	1060	0	134
80	1666	0	140
80	2434	0	142
80	3408	0	142
80	3548	0	142
80	5444	0	142
80	5928	0	142
80	6068	0	142
80	6180	0	142
80	6740	0	142
80	6780	0	142
80	9200	0	144
80	11640	0	144
81	130	0	82
81	544	0	124
81	997	0	133
81	1612	0	140
81	1798	0	142
81	1902	0	142
81	2070	0	142
81	2138	0	142
81	2488	0	142
81	2540	0	142
81	3240	0	142
81	3824	0	142
81	4832	0	142
81	5468	0	142
81	5700	0	142
81	7200	0	142
81	9336	0	144
81	9352	0	144
81	11272	0	144
81	11568	0	144
81	11600	0	144
81	11616	0	144
81	11680	0	144
82	131	0	83
82	147	0	89
82	419	0	123
82	443	0	123
82	523	0	124
82	830	0	132
82	1470	0	138
82	1614	0	140
82	1776	0	142
82	2356	0	142
82	2524	0	142
82	2560	0	142
82	2768	0	142
82	2784	0	142
82	3280	0	142
82	3644	0	142
82	3676	0	142
82	4188	0	142
82	6752	0	142
82	7208	0	142
82	7224	0	142
82	10024	0	144
82	10360	0	144
82	11536	0	144
83	133	0	84
83	211	0	96
83	221	0	103
83	223	0	104
83	616	0	128
83	741	0	130
83	770	0	130
83	953	0	133
83	965	0	133
83	1500	0	138
83	2628	0	142
83	3124	0	142
83	3416	0	142
83	3432	0	142
83	3440	0	142
83	4044	0	142
83	4056	0	142
83	4872	0	142
83	6272	0	142
83	6280	0	142
83	8696	0	142
83	11240	0	144
84	134	0	85
84	203	0	95
84	617	0	128
84	649	0	128
84	683	0	129
84	752	0	130
84	815	0	132
84	828	0	132
84	998	0	133
84	1044	0	134
84	1048	0	134
84	1236	0	138
84	1386	0	138
84	1494	0	138
84	1674	0	140
84	2068	0	142
84	2292	0	142
84	2306	0	142
84	2432	0	142
84	3128	0	142
84	3256	0	142
84	3268	0	142
84	3276	0	142
84	3552	0	142
84	3816	0	142
84	4644	0	142
84	4652	0	142
84	4836	0	142
84	5464	0	142
84	6200	0	142
84	6776	0	142
84	9320	0	144
84	11312	0	144
84	11360	0	144
84	11424	0	144
85	136	0	86
85	146	0	89
85	148	0	89
85	188	0	94
85	227	0	104
85	239	0	106
85	265	0	109
85	307	0	118
85	480	0	123
85	554	0	125
85	602	0	128
85	690	0	130
85	721	0	130
85	764	0	130
85	811	0	132
85	827	0	132
85	836	0	132
85	922	0	133
85	1142	0	138
85	1146	0	138
85	1376	0	138
85	1598	0	140
85	1610	0	140
85	1642	0	140
85	1846	0	142
85	2278	0	142
85	2574	0	142
85	3132	0	142
85	3148	0	142
85	3700	0	142
85	3916	0	142
85	4236	0	142
85	4332	0	142
85	4416	0	142
85	4524	0	142
85	4840	0	142
85	4924	0	142
85	5120	0	142
85	5684	0	142
85	5948	0	142
85	6020	0	142
85	6632	0	142
85	6680	0	142
85	7024	0	142
85	7184	0	142
85	7344	0	142
85	8016	0	142
85	8968	0	144
85	10096	0	144
85	10272	0	144
85	11264	0	144
86	138	0	87
86	160	0	90
86	257	0	108
86	267	0	109
86	384	0	122
86	451	0	123
86	711	0	130
86	897	0	133
86	930	0	133
86	943	0	133
86	979	0	133
86	1320	0	138
86	1420	0	138
86	1440	0	138
86	1634	0	140
86	1764	0	142
86	1834	0	142
86	1842	0	142
86	1866	0	142
86	1936	0	142
86	1990	0	142
86	2078	0	142
86	2114	0	142
86	2500	0	142
86	2514	0	142
86	2592	0	142
86	2652	0	142
86	2668	0	142
86	2688	0	142
86	2860	0	142
86	2914	0	142
86	3508	0	142
86	4068	0	142
86	4344	0	142
86	4484	0	142
86	4508	0	142
86	4748	0	142
86	4972	0	142
86	5048	0	142
86	5492	0	142
86	5536	0	142
86	5580	0	142
86	5616	0	142
86	5656	0	142
86	5668	0	142
86	5996	0	142
86	6368	0	142
86	6504	0	142
86	7072	0	142
86	7944	0	142
86	9576	0	144
86	9944	0	144
86	10048	0	144
86	10376	0	144
87	139	0	88
87	272	0	109
87	309	0	118
87	427	0	123
87	436	0	123
87	450	0	123
87	482	0	123
87	586	0	128
87	593	0	128
87	625	0	128
87	634	0	128
87	673	0	129
87	698	0	130
87	928	0	133
87	935	0	133
87	1256	0	138
87	1572	0	140
87	1606	0	140
87	1628	0	140
87	1882	0	142
87	1892	0	142
87	2110	0	142
87	2180	0	142
87	2462	0	142
87	2530	0	142
87	2744	0	142
87	2774	0	142
87	2832	0	142
87	3220	0	142
87	3540	0	142
87	3720	0	142
87	4480	0	142
87	5136	0	142
87	5840	0	142
87	5972	0	142
87	6484	0	142
87	6528	0	142
87	6664	0	142
87	6788	0	142
87	8472	0	142
87	8664	0	142
87	9256	0	144
87	9496	0	144
87	9712	0	144
87	9856	0	144
87	9936	0	144
87	10512	0	144
87	11824	0	144
88	145	0	89
88	183	0	94
88	185	0	94
88	386	0	122
88	417	0	123
88	424	0	123
88	481	0	123
88	496	0	124
88	538	0	124
88	610	0	128
88	1514	0	138
88	1582	0	140
88	1626	0	140
88	1914	0	142
88	2152	0	142
88	3164	0	142
88	3348	0	142
88	3880	0	142
88	4784	0	142
88	5144	0	142
88	5724	0	142
88	6044	0	142
88	6796	0	142
88	7096	0	142
88	9248	0	144
88	9272	0	144
88	9592	0	144
88	9976	0	144
88	10064	0	144
88	10712	0	144
88	10856	0	144
88	10912	0	144
89	159	0	90
89	279	0	110
89	469	0	123
89	526	0	124
89	540	0	124
89	645	0	128
89	674	0	129
89	709	0	130
89	894	0	133
89	896	0	133
89	1244	0	138
89	1464	0	138
89	1838	0	142
89	2002	0	142
89	2100	0	142
89	2164	0	142
89	2364	0	142
89	2438	0	142
89	2654	0	142
89	2764	0	142
89	2806	0	142
89	2864	0	142
89	2912	0	142
89	3716	0	142
89	4464	0	142
89	4596	0	142
89	4716	0	142
89	5488	0	142
89	5820	0	142
89	5976	0	142
89	6148	0	142
89	6488	0	142
89	7008	0	142
89	7440	0	142
89	7968	0	142
89	8904	0	144
89	9840	0	144
89	11552	0	144
89	11768	0	144
90	162	0	91
90	170	0	93
90	464	0	123
90	492	0	124
90	579	0	128
90	704	0	130
90	993	0	133
90	1254	0	138
90	1264	0	138
90	1356	0	138
90	1518	0	138
90	1758	0	140
90	2414	0	142
90	2672	0	142
90	2852	0	142
90	3324	0	142
90	3840	0	142
90	4404	0	142
90	4792	0	142
90	5548	0	142
90	5572	0	142
90	7472	0	142
90	7520	0	142
90	7912	0	142
90	9688	0	144
90	10536	0	144
90	10552	0	144
90	10696	0	144
91	163	0	92
91	269	0	109
91	329	0	121
91	344	0	121
91	565	0	125
91	594	0	128
91	624	0	128
91	655	0	128
91	695	0	130
91	726	0	130
91	899	0	133
91	927	0	133
91	1080	0	134
91	1084	0	134
91	1226	0	138
91	1402	0	138
91	1568	0	139
91	1704	0	140
91	1720	0	140
91	1754	0	140
91	1968	0	142
91	2194	0	142
91	2380	0	142
91	2392	0	142
91	2666	0	142
91	3168	0	142
91	3300	0	142
91	4152	0	142
91	4408	0	142
91	4500	0	142
91	4808	0	142
91	5228	0	142
91	5416	0	142
91	6028	0	142
91	6820	0	142
91	7320	0	142
91	7368	0	142
91	8056	0	142
91	8512	0	142
91	9440	0	144
91	9616	0	144
91	10888	0	144
91	11024	0	144
92	167	0	93
92	200	0	94
92	351	0	122
92	459	0	123
92	635	0	128
92	749	0	130
92	813	0	132
92	875	0	133
92	903	0	133
92	1342	0	138
92	1496	0	138
92	1664	0	140
92	1836	0	142
92	1992	0	142
92	1998	0	142
92	2012	0	142
92	2168	0	142
92	2308	0	142
92	2334	0	142
92	2486	0	142
92	2502	0	142
92	2538	0	142
92	2606	0	142
92	2734	0	142
92	2780	0	142
92	3448	0	142
92	3468	0	142
92	3544	0	142
92	3724	0	142
92	3984	0	142
92	4192	0	142
92	4228	0	142
92	4424	0	142
92	4580	0	142
92	4604	0	142
92	4668	0	142
92	4740	0	142
92	5072	0	142
92	5148	0	142
92	5904	0	142
92	5984	0	142
92	6492	0	142
92	6532	0	142
92	6656	0	142
92	6784	0	142
92	10136	0	144
92	11416	0	144
92	11624	0	144
93	179	0	94
93	258	0	108
93	318	0	118
93	359	0	122
93	383	0	122
93	391	0	122
93	437	0	123
93	454	0	123
93	639	0	128
93	681	0	129
93	1068	0	134
93	1478	0	138
93	1488	0	138
93	1770	0	142
93	1970	0	142
93	1982	0	142
93	2732	0	142
93	3156	0	142
93	3216	0	142
93	3776	0	142
93	4608	0	142
93	5104	0	142
93	5188	0	142
93	5420	0	142
93	5544	0	142
93	5664	0	142
93	6808	0	142
93	7736	0	142
93	7936	0	142
93	9488	0	144
93	9960	0	144
93	10496	0	144
93	11488	0	144
94	201	0	95
94	812	0	132
94	829	0	132
94	1000	0	133
94	1056	0	134
94	1676	0	140
94	1778	0	142
94	1796	0	142
94	2298	0	142
94	3248	0	142
94	4232	0	142
94	4276	0	142
94	4636	0	142
94	5460	0	142
94	5768	0	142
94	5924	0	142
94	6072	0	142
94	6080	0	142
94	6404	0	142
94	7152	0	142
94	8024	0	142
94	11712	0	144
95	210	0	96
95	314	0	118
95	368	0	122
95	444	0	123
95	461	0	123
95	519	0	124
95	543	0	124
95	548	0	125
95	615	0	128
95	719	0	130
95	1034	0	134
95	1424	0	138
95	1456	0	138
95	1616	0	140
95	1818	0	142
95	1910	0	142
95	2062	0	142
95	2510	0	142
95	2582	0	142
95	2632	0	142
95	2790	0	142
95	2862	0	142
95	4112	0	142
95	4252	0	142
95	4280	0	142
95	4396	0	142
95	4572	0	142
95	4696	0	142
95	4868	0	142
95	5080	0	142
95	5140	0	142
95	5172	0	142
95	5376	0	142
95	5772	0	142
95	5852	0	142
95	5960	0	142
95	6472	0	142
95	6728	0	142
95	8704	0	142
95	9312	0	144
95	9504	0	144
95	10216	0	144
95	11296	0	144
95	11656	0	144
96	212	0	97
96	219	0	102
96	774	0	130
96	780	0	131
96	790	0	131
96	954	0	133
96	962	0	133
96	964	0	133
96	3036	0	142
96	3044	0	142
96	3080	0	142
96	3120	0	142
96	3420	0	142
96	3428	0	142
96	4052	0	142
96	6236	0	142
96	6244	0	142
96	6252	0	142
97	213	0	98
97	777	0	131
97	781	0	131
97	788	0	131
97	792	0	131
97	794	0	131
97	958	0	133
97	960	0	133
97	3052	0	142
97	3060	0	142
97	3068	0	142
98	214	0	99
98	772	0	130
98	786	0	131
98	793	0	131
98	795	0	131
98	3012	0	142
98	3020	0	142
98	3064	0	142
98	3088	0	142
98	6216	0	142
99	215	0	100
99	217	0	101
99	798	0	132
99	3004	0	142
99	3096	0	142
99	3104	0	142
99	3112	0	142
99	6212	0	142
99	6228	0	142
100	216	0	101
100	797	0	132
100	800	0	132
100	1792	0	142
100	2548	0	142
100	3808	0	142
100	5020	0	142
100	6192	0	142
100	6208	0	142
100	7264	0	142
101	218	0	102
101	773	0	130
101	779	0	131
101	785	0	131
101	787	0	131
101	789	0	131
101	955	0	133
101	961	0	133
101	3028	0	142
101	3072	0	142
101	3092	0	142
101	3100	0	142
101	3116	0	142
101	6220	0	142
101	6232	0	142
101	6256	0	142
101	6264	0	142
102	220	0	103
102	771	0	130
102	776	0	131
102	778	0	131
102	783	0	131
102	957	0	133
102	959	0	133
102	3024	0	142
102	3048	0	142
102	3056	0	142
102	3084	0	142
102	4048	0	142
102	6260	0	142
102	6268	0	142
103	222	0	104
103	3436	0	142
103	6276	0	142
104	228	0	105
104	248	0	106
104	254	0	108
104	371	0	122
104	382	0	122
104	445	0	123
104	462	0	123
104	882	0	133
104	1486	0	138
104	1706	0	140
104	2086	0	142
104	2312	0	142
104	2480	0	142
104	2618	0	142
104	2686	0	142
104	2740	0	142
104	2752	0	142
104	2802	0	142
104	3492	0	142
104	3784	0	142
104	3836	0	142
104	4368	0	142
104	4444	0	142
104	4544	0	142
104	4812	0	142
104	5252	0	142
104	5388	0	142
104	5792	0	142
104	6932	0	142
104	8008	0	142
104	9184	0	144
104	10072	0	144
104	10704	0	144
105	233	0	106
105	330	0	121
105	389	0	122
105	601	0	128
105	619	0	128
105	735	0	130
105	760	0	130
105	989	0	133
105	1174	0	138
105	1422	0	138
105	1828	0	142
105	1858	0	142
105	1890	0	142
105	1946	0	142
105	1986	0	142
105	2074	0	142
105	2096	0	142
105	2104	0	142
105	2286	0	142
105	2310	0	142
105	2338	0	142
105	3580	0	142
105	3600	0	142
105	3912	0	142
105	4116	0	142
105	4224	0	142
105	5068	0	142
105	6964	0	142
105	8680	0	142
105	9720	0	144
105	10328	0	144
105	10808	0	144
105	10896	0	144
105	11192	0	144
105	11832	0	144
106	250	0	107
106	311	0	118
106	346	0	122
106	374	0	122
106	415	0	123
106	439	0	123
106	465	0	123
106	501	0	124
106	507	0	124
106	638	0	128
106	762	0	130
106	855	0	132
106	992	0	133
106	1120	0	138
106	1480	0	138
106	1524	0	138
106	1684	0	140
106	1884	0	142
106	2022	0	142
106	2026	0	142
106	2116	0	142
106	2256	0	142
106	2284	0	142
106	2394	0	142
106	2416	0	142
106	2640	0	142
106	2776	0	142
106	2798	0	142
106	3140	0	142
106	3308	0	142
106	3392	0	142
106	3524	0	142
106	4292	0	142
106	5424	0	142
106	6036	0	142
106	6300	0	142
106	6376	0	142
106	6452	0	142
106	6500	0	142
106	6920	0	142
106	6948	0	142
106	7480	0	142
106	7592	0	142
106	7704	0	142
106	7808	0	142
106	8720	0	142
106	9000	0	144
106	9568	0	144
106	10440	0	144
106	10656	0	144
106	10984	0	144
107	252	0	108
107	308	0	118
107	354	0	122
107	410	0	123
107	536	0	124
107	608	0	128
107	643	0	128
107	647	0	128
107	651	0	128
107	682	0	129
107	736	0	130
107	743	0	130
107	816	0	132
107	846	0	132
107	966	0	133
107	1032	0	134
107	1074	0	134
107	1708	0	140
107	1978	0	142
107	2016	0	142
107	2098	0	142
107	2436	0	142
107	2464	0	142
107	2470	0	142
107	3556	0	142
107	3584	0	142
107	3752	0	142
107	3980	0	142
107	3992	0	142
107	4308	0	142
107	4472	0	142
107	4624	0	142
107	4680	0	142
107	4728	0	142
107	4772	0	142
107	4952	0	142
107	5032	0	142
107	5100	0	142
107	5812	0	142
107	6008	0	142
107	6060	0	142
107	6424	0	142
107	9400	0	144
107	11320	0	144
107	11440	0	144
107	11840	0	144
108	262	0	109
108	323	0	119
108	491	0	124
108	1128	0	138
108	1286	0	138
108	1334	0	138
108	2160	0	142
108	2368	0	142
108	2448	0	142
108	7048	0	142
108	11216	0	144
109	273	0	110
109	362	0	122
109	691	0	130
109	873	0	133
109	946	0	133
109	1380	0	138
109	1474	0	138
109	1508	0	138
109	1830	0	142
109	1844	0	142
109	1862	0	142
109	1904	0	142
109	2000	0	142
109	2060	0	142
109	2072	0	142
109	2090	0	142
109	2176	0	142
109	2190	0	142
109	2274	0	142
109	2576	0	142
109	2580	0	142
109	2636	0	142
109	2762	0	142
109	3576	0	142
109	3648	0	142
109	4128	0	142
109	4256	0	142
109	4264	0	142
109	4376	0	142
109	4552	0	142
109	4688	0	142
109	5472	0	142
109	5796	0	142
109	5896	0	142
109	6084	0	142
109	6160	0	142
109	6732	0	142
109	6756	0	142
109	11184	0	144
110	288	0	111
110	313	0	118
110	367	0	122
110	471	0	123
110	485	0	123
110	508	0	124
110	564	0	125
110	710	0	130
110	757	0	130
110	810	0	132
110	881	0	133
110	942	0	133
110	1078	0	134
110	1234	0	138
110	1246	0	138
110	1338	0	138
110	1382	0	138
110	1476	0	138
110	1492	0	138
110	1710	0	140
110	1814	0	142
110	1896	0	142
110	1916	0	142
110	2092	0	142
110	2154	0	142
110	2294	0	142
110	2824	0	142
110	2858	0	142
110	3160	0	142
110	3312	0	142
110	3336	0	142
110	3368	0	142
110	3400	0	142
110	3728	0	142
110	3744	0	142
110	3944	0	142
110	3996	0	142
110	4036	0	142
110	4160	0	142
110	4560	0	142
110	5236	0	142
110	5264	0	142
110	5312	0	142
110	5360	0	142
110	5380	0	142
110	5528	0	142
110	5708	0	142
110	6392	0	142
110	6616	0	142
110	6688	0	142
110	7080	0	142
110	7168	0	142
110	7336	0	142
110	8040	0	142
110	8528	0	142
110	8832	0	142
110	9232	0	144
110	9296	0	144
110	10224	0	144
111	290	0	112
111	300	0	118
111	1290	0	138
111	1302	0	138
111	2162	0	142
111	2440	0	142
111	2446	0	142
111	2894	0	142
111	2906	0	142
111	2910	0	142
111	4712	0	142
111	7976	0	142
112	292	0	113
112	299	0	118
112	302	0	118
112	1308	0	138
112	2876	0	142
112	2880	0	142
112	2892	0	142
112	4708	0	142
113	293	0	114
113	301	0	118
113	1274	0	138
113	1278	0	138
113	2872	0	142
113	2878	0	142
113	2886	0	142
113	2890	0	142
114	294	0	115
114	1270	0	138
114	1282	0	138
114	1296	0	138
114	1306	0	138
114	2882	0	142
114	2888	0	142
114	2900	0	142
115	295	0	116
115	297	0	117
115	303	0	118
115	1298	0	138
115	2868	0	142
115	2908	0	142
116	296	0	117
116	304	0	118
116	1272	0	138
116	1304	0	138
116	1312	0	138
116	2444	0	142
116	2870	0	142
116	7984	0	142
117	298	0	118
117	1310	0	138
117	2442	0	142
117	2874	0	142
117	2896	0	142
117	2904	0	142
118	322	0	119
118	326	0	121
118	476	0	123
118	489	0	123
118	512	0	124
118	515	0	124
118	1162	0	138
118	1166	0	138
118	1354	0	138
118	1412	0	138
118	1760	0	140
118	4492	0	142
118	5736	0	142
118	10160	0	144
119	324	0	120
119	821	0	132
119	920	0	133
119	1164	0	138
119	1316	0	138
119	1414	0	138
119	1622	0	140
119	1932	0	142
119	2516	0	142
119	3864	0	142
119	4452	0	142
119	5512	0	142
119	5520	0	142
119	5612	0	142
119	6364	0	142
119	8920	0	144
119	9760	0	144
119	10568	0	144
119	10768	0	144
119	10872	0	144
120	325	0	121
120	379	0	122
120	514	0	124
120	916	0	133
120	918	0	133
120	1762	0	141
120	1954	0	142
120	2322	0	142
120	2450	0	142
120	3200	0	142
120	5556	0	142
120	5732	0	142
120	10168	0	144
120	10576	0	144
120	10608	0	144
120	10752	0	144
120	11104	0	144
121	345	0	122
121	862	0	132
121	1100	0	135
121	2254	0	142
121	2382	0	142
121	2696	0	142
121	6560	0	142
121	6896	0	142
121	7568	0	142
121	7664	0	142
121	7816	0	142
121	9016	0	144
122	395	0	123
122	404	0	123
122	577	0	128
122	1214	0	138
122	1448	0	138
122	1650	0	140
122	2200	0	142
122	2386	0	142
122	2694	0	142
122	2726	0	142
122	2940	0	142
122	2986	0	142
122	3180	0	142
122	3848	0	142
122	5192	0	142
122	7544	0	142
122	9008	0	144
122	9784	0	144
122	10408	0	144
122	10432	0	144
122	11088	0	144
123	490	0	124
123	511	0	124
123	700	0	130
123	910	0	133
123	1130	0	138
123	1444	0	138
123	1926	0	142
123	1930	0	142
123	1956	0	142
123	1964	0	142
123	2926	0	142
123	3856	0	142
123	5212	0	142
124	545	0	125
124	803	0	132
124	999	0	133
124	1004	0	133
124	1594	0	140
124	1800	0	142
124	2128	0	142
124	3264	0	142
124	6196	0	142
124	6772	0	142
124	11672	0	144
124	11720	0	144
125	569	0	126
125	1092	0	134
125	2220	0	142
125	2710	0	142
125	2966	0	142
125	8320	0	142
126	572	0	127
126	2038	0	142
126	6308	0	142
126	8208	0	142
127	576	0	128
127	657	0	129
127	867	0	132
127	1086	0	134
127	1118	0	137
127	1530	0	139
127	1744	0	140
127	2028	0	142
127	2922	0	142
127	8080	0	142
127	8248	0	142
127	10416	0	144
128	656	0	129
128	856	0	132
128	1526	0	138
128	1532	0	139
128	1544	0	139
128	2208	0	142
128	2960	0	142
128	6840	0	142
128	6888	0	142
128	7840	0	142
128	8256	0	142
128	8376	0	142
128	11032	0	144
129	687	0	130
129	844	0	132
129	1240	0	138
129	3696	0	142
129	5012	0	142
129	5916	0	142
129	6172	0	142
129	9520	0	144
129	10200	0	144
129	11664	0	144
129	11728	0	144
130	775	0	131
130	782	0	131
130	784	0	131
130	791	0	131
130	956	0	133
130	963	0	133
130	3032	0	142
130	3040	0	142
130	3076	0	142
130	3424	0	142
130	6240	0	142
130	6248	0	142
131	796	0	132
131	799	0	132
131	3008	0	142
131	3016	0	142
131	3108	0	142
131	6224	0	142
132	868	0	133
132	1218	0	138
132	1726	0	140
132	2206	0	142
132	2702	0	142
132	6552	0	142
132	6584	0	142
132	6872	0	142
132	8224	0	142
132	11872	0	144
133	1008	0	134
133	1238	0	138
133	1786	0	142
133	1790	0	142
133	1804	0	142
133	2126	0	142
133	2358	0	142
133	2428	0	142
133	3692	0	142
133	3792	0	142
133	3800	0	142
133	3820	0	142
133	4648	0	142
133	5016	0	142
133	9344	0	144
133	11696	0	144
134	1096	0	135
134	6340	0	142
134	7648	0	142
134	8416	0	142
135	1102	0	136
135	1202	0	138
135	2948	0	142
135	8136	0	142
135	9032	0	144
136	1104	0	137
136	1192	0	138
136	2032	0	142
136	2238	0	142
136	2964	0	142
136	2968	0	142
136	2994	0	142
136	7608	0	142
136	8296	0	142
136	8312	0	142
136	8336	0	142
136	9040	0	144
137	1370	0	138
137	1794	0	142
137	2542	0	142
137	2546	0	142
137	3804	0	142
137	4568	0	142
137	4640	0	142
137	5372	0	142
137	6188	0	142
137	7256	0	142
137	10208	0	144
137	11288	0	144
138	1528	0	139
138	6556	0	142
138	11880	0	144
139	2224	0	142
139	2720	0	142
139	6572	0	142
139	8328	0	142
139	8352	0	142
140	2250	0	142
140	2972	0	142
141	11888	0	145

