version 3
run General-487-20250904-14:13:25-16038
attr configname General
attr datetime 20250904-14:13:25
attr datetimef 20250904-141325
attr experiment General
attr inifile omnetpp.ini
attr iterationvars ""
attr iterationvarsd ""
attr iterationvarsf ""
attr measurement ""
attr network TaxiNetwork
attr processid 16038
attr repetition 487
attr replication #487
attr resultdir results
attr runnumber 487
attr seedset 487
config network TaxiNetwork
config seed-set 487
config num-rngs 1
config sim-time-limit 10s
config repeat 500
config *.numWalkers 1
config *.enableDuplication true
config *.rc 700
config **.node[0].xCor 2933
config **.node[0].yCor 2747
config **.node[1].xCor 2919
config **.node[1].yCor 2817
config **.node[2].xCor 2910
config **.node[2].yCor 2861
config **.node[3].xCor 2429
config **.node[3].yCor 2851
config **.node[4].xCor 2908
config **.node[4].yCor 2714
config **.node[5].xCor 2606
config **.node[5].yCor 2722
config **.node[6].xCor 2575
config **.node[6].yCor 2753
config **.node[7].xCor 2654
config **.node[7].yCor 2513
config **.node[8].xCor 2773
config **.node[8].yCor 2580
config **.node[9].xCor 3043
config **.node[9].yCor 2780
config **.node[10].xCor 3020
config **.node[10].yCor 2813
config **.node[11].xCor 2599
config **.node[11].yCor 2300
config **.node[12].xCor 2917
config **.node[12].yCor 2698
config **.node[13].xCor 2625
config **.node[13].yCor 2641
config **.node[14].xCor 2604
config **.node[14].yCor 2790
config **.node[15].xCor 2786
config **.node[15].yCor 3082
config **.node[16].xCor 2603
config **.node[16].yCor 2802
config **.node[17].xCor 2637
config **.node[17].yCor 2869
config **.node[18].xCor 2675
config **.node[18].yCor 2955
config **.node[19].xCor 2845
config **.node[19].yCor 2937
config **.node[20].xCor 2860
config **.node[20].yCor 2888
config **.node[21].xCor 2843
config **.node[21].yCor 4158
config **.node[22].xCor 2852
config **.node[22].yCor 4017
config **.node[23].xCor 2892
config **.node[23].yCor 4961
config **.node[24].xCor 2313
config **.node[24].yCor 3993
config **.node[25].xCor 2891
config **.node[25].yCor 4959
config **.node[26].xCor 2370
config **.node[26].yCor 4050
config **.node[27].xCor 2788
config **.node[27].yCor 3958
config **.node[28].xCor 2819
config **.node[28].yCor 4428
config **.node[29].xCor 2790
config **.node[29].yCor 3761
config **.node[30].xCor 2809
config **.node[30].yCor 2908
config **.node[31].xCor 2919
config **.node[31].yCor 3575
config **.node[32].xCor 2946
config **.node[32].yCor 3466
config **.node[33].xCor 2911
config **.node[33].yCor 3453
config **.node[34].xCor 2370
config **.node[34].yCor 3656
config **.node[35].xCor 2438
config **.node[35].yCor 3738
config **.node[36].xCor 2737
config **.node[36].yCor 3570
config **.node[37].xCor 2921
config **.node[37].yCor 3698
config **.node[38].xCor 2907
config **.node[38].yCor 5197
config **.node[39].xCor 2860
config **.node[39].yCor 3852
config **.node[40].xCor 2927
config **.node[40].yCor 3684
config **.node[41].xCor 3023
config **.node[41].yCor 5313
config **.node[42].xCor 3220
config **.node[42].yCor 5811
config **.node[43].xCor 3432
config **.node[43].yCor 5715
config **.node[44].xCor 2754
config **.node[44].yCor 2463
config **.node[45].xCor 2646
config **.node[45].yCor 2673
config **.node[46].xCor 3051
config **.node[46].yCor 2792
config **.node[47].xCor 1666
config **.node[47].yCor 3697
config **.node[48].xCor 1662
config **.node[48].yCor 3694
config **.node[49].xCor 1664
config **.node[49].yCor 3667
config **.node[50].xCor 1660
config **.node[50].yCor 3664
config **.node[51].xCor 1710
config **.node[51].yCor 3573
config **.node[52].xCor 2082
config **.node[52].yCor 2650
config **.node[53].xCor 2086
config **.node[53].yCor 2657
config **.node[54].xCor 2257
config **.node[54].yCor 3232
config **.node[55].xCor 2258
config **.node[55].yCor 3225
config **.node[56].xCor 1926
config **.node[56].yCor 2570
config **.node[57].xCor 1926
config **.node[57].yCor 2576
config **.node[58].xCor 2104
config **.node[58].yCor 1758
config **.node[59].xCor 1957
config **.node[59].yCor 1826
config **.node[60].xCor 3473
config **.node[60].yCor 1523
config **.node[61].xCor 3335
config **.node[61].yCor 1726
config **.node[62].xCor 3478
config **.node[62].yCor 1517
config **.node[63].xCor 3386
config **.node[63].yCor 2119
config **.node[64].xCor 3474
config **.node[64].yCor 1762
config **.node[65].xCor 3797
config **.node[65].yCor 2099
config **.node[66].xCor 3642
config **.node[66].yCor 2136
config **.node[67].xCor 3481
config **.node[67].yCor 2334
config **.node[68].xCor 3088
config **.node[68].yCor 1505
config **.node[69].xCor 3037
config **.node[69].yCor 1693
config **.node[70].xCor 3026
config **.node[70].yCor 1700
config **.node[71].xCor 3019
config **.node[71].yCor 669
config **.node[72].xCor 3513
config **.node[72].yCor 1358
config **.node[73].xCor 3545
config **.node[73].yCor 1230
config **.node[74].xCor 4228
config **.node[74].yCor 4220
config **.node[75].xCor 3379
config **.node[75].yCor 1207
config **.node[76].xCor 3596
config **.node[76].yCor 963
config **.node[77].xCor 3637
config **.node[77].yCor 1188
config **.node[78].xCor 3759
config **.node[78].yCor 1030
config **.node[79].xCor 2918
config **.node[79].yCor 1455
config **.node[80].xCor 2711
config **.node[80].yCor 1297
config **.node[81].xCor 439
config **.node[81].yCor 1623
config **.node[82].xCor 2857
config **.node[82].yCor 3581
config **.node[83].xCor 2858
config **.node[83].yCor 3584
config **.node[84].xCor 2999
config **.node[84].yCor 2636
config **.node[85].xCor 2905
config **.node[85].yCor 2778
config **.node[86].xCor 2653
config **.node[86].yCor 2845
config **.node[87].xCor 2864
config **.node[87].yCor 2836
config **.node[88].xCor 2426
config **.node[88].yCor 2892
config **.node[89].xCor 2964
config **.node[89].yCor 2804
config **.node[90].xCor 2586
config **.node[90].yCor 3135
config **.node[91].xCor 2864
config **.node[91].yCor 2980
config **.node[92].xCor 2527
config **.node[92].yCor 3219
config **.node[93].xCor 2863
config **.node[93].yCor 3142
config **.node[94].xCor 2485
config **.node[94].yCor 3269
config **.node[95].xCor 2653
config **.node[95].yCor 1065
config **.node[96].xCor 4062
config **.node[96].yCor 400
config **.node[97].xCor 5762
config **.node[97].yCor 3023
config **.node[98].xCor 1414
config **.node[98].yCor 3461
config **.node[99].xCor 2911
config **.node[99].yCor 1737
config **.node[100].xCor 2595
config **.node[100].yCor 2299
config **.node[101].xCor 2702
config **.node[101].yCor 3419
config **.node[102].xCor 2813
config **.node[102].yCor 3307
config **.node[103].xCor 2638
config **.node[103].yCor 2258
config **.node[104].xCor 2590
config **.node[104].yCor 3125
config **.node[105].xCor 1856
config **.node[105].yCor 2990
config **.node[106].xCor 1894
config **.node[106].yCor 2239
config **.node[107].xCor 383
config **.node[107].yCor 1251
config **.node[108].xCor 3447
config **.node[108].yCor 5489
config **.node[109].xCor 3450
config **.node[109].yCor 5697
config **.node[110].xCor 2719
config **.node[110].yCor 1920
config **.node[111].xCor 2085
config **.node[111].yCor 2389
config **.node[112].xCor 1910
config **.node[112].yCor 2548
config **.node[113].xCor 2069
config **.node[113].yCor 2050
config **.node[114].xCor 2184
config **.node[114].yCor 2209
config **.node[115].xCor 2278
config **.node[115].yCor 2390
config **.node[116].xCor 2249
config **.node[116].yCor 2299
config **.node[117].xCor 2356
config **.node[117].yCor 2303
config **.node[118].xCor 2192
config **.node[118].yCor 2475
config **.node[119].xCor 1720
config **.node[119].yCor 2911
config **.node[120].xCor 2400
config **.node[120].yCor 2887
config **.node[121].xCor 3344
config **.node[121].yCor 1890
config **.node[122].xCor 3136
config **.node[122].yCor 2418
config **.node[123].xCor 3243
config **.node[123].yCor 2525
config **.node[124].xCor 2396
config **.node[124].yCor 1267
config **.node[125].xCor 467
config **.node[125].yCor 1875
config **.node[126].xCor 3506
config **.node[126].yCor 1221
config **.node[127].xCor 1034
config **.node[127].yCor 1474
config **.node[128].xCor 2908
config **.node[128].yCor 1784
config **.node[129].xCor 2876
config **.node[129].yCor 1761
config **.node[130].xCor 2849
config **.node[130].yCor 1795
config **.node[131].xCor 3029
config **.node[131].yCor 1859
config **.node[132].xCor 2924
config **.node[132].yCor 1848
config **.node[133].xCor 3493
config **.node[133].yCor 1559
config **.node[134].xCor 2760
config **.node[134].yCor 1761
config **.node[135].xCor 1644
config **.node[135].yCor 3755
config **.node[136].xCor 1463
config **.node[136].yCor 3432
config **.node[137].xCor 2595
config **.node[137].yCor 2849
config **.node[138].xCor 2581
config **.node[138].yCor 2867
config **.node[139].xCor 2524
config **.node[139].yCor 2911
config **.node[140].xCor 2570
config **.node[140].yCor 2924
config **.node[141].xCor 2676
config **.node[141].yCor 2890
config **.node[142].xCor 2666
config **.node[142].yCor 2876
config **.node[143].xCor 3735
config **.node[143].yCor 1726
config **.node[144].xCor 1637
config **.node[144].yCor 3438

vector 0 TaxiNetwork.node[89] visitedPerTimestep ETV
vector 1 TaxiNetwork.node[88] visitedPerTimestep ETV
vector 2 TaxiNetwork.node[93] visitedPerTimestep ETV
vector 3 TaxiNetwork.node[86] visitedPerTimestep ETV
vector 4 TaxiNetwork.node[7] visitedPerTimestep ETV
vector 5 TaxiNetwork.node[138] visitedPerTimestep ETV
vector 6 TaxiNetwork.node[116] visitedPerTimestep ETV
vector 7 TaxiNetwork.node[53] visitedPerTimestep ETV
vector 8 TaxiNetwork.node[16] visitedPerTimestep ETV
vector 9 TaxiNetwork.node[91] visitedPerTimestep ETV
vector 10 TaxiNetwork.node[33] visitedPerTimestep ETV
vector 11 TaxiNetwork.node[18] visitedPerTimestep ETV
vector 12 TaxiNetwork.node[19] visitedPerTimestep ETV
vector 13 TaxiNetwork.node[55] visitedPerTimestep ETV
vector 14 TaxiNetwork.node[57] visitedPerTimestep ETV
vector 15 TaxiNetwork.node[114] visitedPerTimestep ETV
vector 16 TaxiNetwork.node[103] visitedPerTimestep ETV
vector 17 TaxiNetwork.node[30] visitedPerTimestep ETV
vector 18 TaxiNetwork.node[92] visitedPerTimestep ETV
vector 19 TaxiNetwork.node[14] visitedPerTimestep ETV
vector 20 TaxiNetwork.node[123] visitedPerTimestep ETV
vector 21 TaxiNetwork.node[8] visitedPerTimestep ETV
vector 22 TaxiNetwork.node[0] visitedPerTimestep ETV
vector 23 TaxiNetwork.node[6] visitedPerTimestep ETV
vector 24 TaxiNetwork.node[137] visitedPerTimestep ETV
vector 25 TaxiNetwork.node[1] visitedPerTimestep ETV
vector 26 TaxiNetwork.node[82] visitedPerTimestep ETV
vector 27 TaxiNetwork.node[12] visitedPerTimestep ETV
vector 28 TaxiNetwork.node[4] visitedPerTimestep ETV
vector 29 TaxiNetwork.node[36] visitedPerTimestep ETV
vector 30 TaxiNetwork.node[35] visitedPerTimestep ETV
vector 31 TaxiNetwork.node[20] visitedPerTimestep ETV
vector 32 TaxiNetwork.node[117] visitedPerTimestep ETV
vector 33 TaxiNetwork.node[113] visitedPerTimestep ETV
vector 34 TaxiNetwork.node[44] visitedPerTimestep ETV
vector 35 TaxiNetwork.node[102] visitedPerTimestep ETV
vector 36 TaxiNetwork.node[3] visitedPerTimestep ETV
vector 37 TaxiNetwork.node[56] visitedPerTimestep ETV
vector 38 TaxiNetwork.node[112] visitedPerTimestep ETV
vector 39 TaxiNetwork.node[118] visitedPerTimestep ETV
vector 40 TaxiNetwork.node[142] visitedPerTimestep ETV
vector 41 TaxiNetwork.node[45] visitedPerTimestep ETV
vector 42 TaxiNetwork.node[139] visitedPerTimestep ETV
vector 43 TaxiNetwork.node[11] visitedPerTimestep ETV
vector 44 TaxiNetwork.node[141] visitedPerTimestep ETV
vector 45 TaxiNetwork.node[94] visitedPerTimestep ETV
vector 46 TaxiNetwork.node[5] visitedPerTimestep ETV
vector 47 TaxiNetwork.node[52] visitedPerTimestep ETV
vector 48 TaxiNetwork.node[120] visitedPerTimestep ETV
vector 49 TaxiNetwork.node[17] visitedPerTimestep ETV
vector 50 TaxiNetwork.node[140] visitedPerTimestep ETV
vector 51 TaxiNetwork.node[46] visitedPerTimestep ETV
vector 52 TaxiNetwork.node[131] visitedPerTimestep ETV
vector 53 TaxiNetwork.node[66] visitedPerTimestep ETV
vector 54 TaxiNetwork.node[122] visitedPerTimestep ETV
vector 55 TaxiNetwork.node[110] visitedPerTimestep ETV
vector 56 TaxiNetwork.node[104] visitedPerTimestep ETV
vector 57 TaxiNetwork.node[9] visitedPerTimestep ETV
vector 58 TaxiNetwork.node[84] visitedPerTimestep ETV
vector 59 TaxiNetwork.node[87] visitedPerTimestep ETV
vector 60 TaxiNetwork.node[2] visitedPerTimestep ETV
vector 61 TaxiNetwork.node[85] visitedPerTimestep ETV
vector 62 TaxiNetwork.node[15] visitedPerTimestep ETV
vector 63 TaxiNetwork.node[101] visitedPerTimestep ETV
vector 64 TaxiNetwork.node[54] visitedPerTimestep ETV
vector 65 TaxiNetwork.node[34] visitedPerTimestep ETV
vector 66 TaxiNetwork.node[115] visitedPerTimestep ETV
vector 67 TaxiNetwork.node[59] visitedPerTimestep ETV
vector 68 TaxiNetwork.node[100] visitedPerTimestep ETV
vector 69 TaxiNetwork.node[10] visitedPerTimestep ETV
vector 70 TaxiNetwork.node[111] visitedPerTimestep ETV
vector 71 TaxiNetwork.node[130] visitedPerTimestep ETV
vector 72 TaxiNetwork.node[60] visitedPerTimestep ETV
vector 73 TaxiNetwork.node[70] visitedPerTimestep ETV
vector 74 TaxiNetwork.node[64] visitedPerTimestep ETV
vector 75 TaxiNetwork.node[79] visitedPerTimestep ETV
vector 76 TaxiNetwork.node[72] visitedPerTimestep ETV
vector 77 TaxiNetwork.node[128] visitedPerTimestep ETV
vector 78 TaxiNetwork.node[133] visitedPerTimestep ETV
vector 79 TaxiNetwork.node[76] visitedPerTimestep ETV
vector 80 TaxiNetwork.node[73] visitedPerTimestep ETV
vector 81 TaxiNetwork.node[126] visitedPerTimestep ETV
vector 82 TaxiNetwork.node[77] visitedPerTimestep ETV
vector 83 TaxiNetwork.node[68] visitedPerTimestep ETV
vector 84 TaxiNetwork.node[143] visitedPerTimestep ETV
vector 85 TaxiNetwork.node[63] visitedPerTimestep ETV
vector 86 TaxiNetwork.node[75] visitedPerTimestep ETV
vector 87 TaxiNetwork.node[71] visitedPerTimestep ETV
vector 88 TaxiNetwork.node[80] visitedPerTimestep ETV
vector 89 TaxiNetwork.node[129] visitedPerTimestep ETV
vector 90 TaxiNetwork.node[69] visitedPerTimestep ETV
vector 91 TaxiNetwork.node[13] visitedPerTimestep ETV
vector 92 TaxiNetwork.node[37] visitedPerTimestep ETV
vector 93 TaxiNetwork.node[78] visitedPerTimestep ETV
vector 94 TaxiNetwork.node[62] visitedPerTimestep ETV
vector 95 TaxiNetwork.node[121] visitedPerTimestep ETV
vector 96 TaxiNetwork.node[95] visitedPerTimestep ETV
vector 97 TaxiNetwork.node[32] visitedPerTimestep ETV
vector 98 TaxiNetwork.node[90] visitedPerTimestep ETV
vector 99 TaxiNetwork.node[31] visitedPerTimestep ETV
vector 100 TaxiNetwork.node[29] visitedPerTimestep ETV
vector 101 TaxiNetwork.node[74] visitedPerTimestep ETV
vector 102 TaxiNetwork.node[97] visitedPerTimestep ETV
vector 103 TaxiNetwork.node[119] visitedPerTimestep ETV
vector 104 TaxiNetwork.node[51] visitedPerTimestep ETV
vector 105 TaxiNetwork.node[136] visitedPerTimestep ETV
vector 106 TaxiNetwork.node[49] visitedPerTimestep ETV
vector 107 TaxiNetwork.node[48] visitedPerTimestep ETV
vector 108 TaxiNetwork.node[40] visitedPerTimestep ETV
vector 109 TaxiNetwork.node[22] visitedPerTimestep ETV
vector 110 TaxiNetwork.node[24] visitedPerTimestep ETV
vector 111 TaxiNetwork.node[39] visitedPerTimestep ETV
vector 112 TaxiNetwork.node[58] visitedPerTimestep ETV
vector 113 TaxiNetwork.node[106] visitedPerTimestep ETV
vector 114 TaxiNetwork.node[67] visitedPerTimestep ETV
vector 115 TaxiNetwork.node[65] visitedPerTimestep ETV
vector 116 TaxiNetwork.node[96] visitedPerTimestep ETV
vector 117 TaxiNetwork.node[134] visitedPerTimestep ETV
vector 118 TaxiNetwork.node[61] visitedPerTimestep ETV
vector 119 TaxiNetwork.node[132] visitedPerTimestep ETV
vector 120 TaxiNetwork.node[83] visitedPerTimestep ETV
vector 121 TaxiNetwork.node[105] visitedPerTimestep ETV
vector 122 TaxiNetwork.node[98] visitedPerTimestep ETV
vector 123 TaxiNetwork.node[144] visitedPerTimestep ETV
vector 124 TaxiNetwork.node[135] visitedPerTimestep ETV
vector 125 TaxiNetwork.node[50] visitedPerTimestep ETV
vector 126 TaxiNetwork.node[27] visitedPerTimestep ETV
vector 127 TaxiNetwork.node[26] visitedPerTimestep ETV
vector 128 TaxiNetwork.node[21] visitedPerTimestep ETV
vector 129 TaxiNetwork.node[127] visitedPerTimestep ETV
vector 130 TaxiNetwork.node[99] visitedPerTimestep ETV
vector 131 TaxiNetwork.node[125] visitedPerTimestep ETV
vector 132 TaxiNetwork.node[107] visitedPerTimestep ETV
vector 133 TaxiNetwork.node[81] visitedPerTimestep ETV
vector 134 TaxiNetwork.node[124] visitedPerTimestep ETV
vector 135 TaxiNetwork.node[28] visitedPerTimestep ETV
vector 136 TaxiNetwork.node[25] visitedPerTimestep ETV
vector 137 TaxiNetwork.node[38] visitedPerTimestep ETV
vector 138 TaxiNetwork.node[23] visitedPerTimestep ETV
vector 139 TaxiNetwork.node[41] visitedPerTimestep ETV
vector 140 TaxiNetwork.node[109] visitedPerTimestep ETV
vector 141 TaxiNetwork.node[42] visitedPerTimestep ETV
vector 142 TaxiNetwork.node[108] visitedPerTimestep ETV
vector 143 TaxiNetwork.node[43] visitedPerTimestep ETV
0	1	0	1
0	357	0	100
0	444	0	108
0	667	0	121
0	669	0	121
0	820	0	126
0	851	0	126
0	964	0	129
0	991	0	129
0	1262	0	131
0	1316	0	131
0	1484	0	135
0	1900	0	135
0	1928	0	136
0	2050	0	136
1	2	0	2
1	21	0	18
1	71	0	42
1	73	0	42
1	174	0	70
1	190	0	71
1	296	0	97
1	303	0	97
1	362	0	100
1	398	0	101
1	414	0	103
1	427	0	103
1	464	0	108
1	652	0	121
1	657	0	121
1	689	0	121
1	698	0	121
1	763	0	126
1	780	0	126
1	976	0	129
1	1362	0	131
1	1386	0	132
1	1534	0	135
1	1582	0	135
1	1734	0	135
1	1738	0	135
1	1884	0	135
1	2080	0	136
1	2094	0	136
1	2100	0	136
1	2150	0	136
1	2194	0	136
2	3	0	3
2	65	0	40
2	170	0	69
2	495	0	112
2	506	0	112
2	512	0	112
2	517	0	112
2	532	0	112
2	536	0	112
2	623	0	121
2	685	0	121
2	760	0	126
2	765	0	126
2	899	0	128
2	993	0	129
2	996	0	129
2	1236	0	131
2	1304	0	131
2	1336	0	131
2	1346	0	131
2	1610	0	135
2	1670	0	135
2	1692	0	135
2	1744	0	135
2	1818	0	135
2	1850	0	135
2	1880	0	135
2	1916	0	135
3	4	0	4
3	14	0	13
3	143	0	65
3	282	0	97
3	308	0	97
3	339	0	100
3	475	0	108
3	483	0	108
3	636	0	121
3	640	0	121
3	648	0	121
3	707	0	121
3	819	0	126
3	952	0	129
3	986	0	129
3	1074	0	131
3	1212	0	131
3	1384	0	132
3	1518	0	135
3	1526	0	135
3	1796	0	135
3	2134	0	136
4	5	0	5
4	33	0	26
4	38	0	28
4	60	0	39
4	346	0	100
4	470	0	108
4	520	0	112
4	533	0	112
4	676	0	121
4	748	0	126
4	750	0	126
4	816	0	126
4	822	0	126
4	826	0	126
4	886	0	126
4	918	0	128
4	944	0	129
4	948	0	129
4	971	0	129
4	987	0	129
4	1270	0	131
4	1296	0	131
4	1354	0	131
4	1380	0	131
4	1390	0	132
4	1470	0	135
4	1848	0	135
4	1876	0	135
5	6	0	6
5	50	0	34
5	96	0	49
5	124	0	62
5	319	0	97
5	394	0	101
5	497	0	112
5	504	0	112
5	540	0	112
5	705	0	121
5	838	0	126
5	871	0	126
5	956	0	129
5	1156	0	131
5	1186	0	131
5	1254	0	131
5	1596	0	135
5	1624	0	135
5	1644	0	135
5	1690	0	135
5	1890	0	135
5	1898	0	135
5	1942	0	136
5	2336	0	136
6	7	0	7
6	84	0	48
6	167	0	68
6	177	0	70
6	188	0	71
6	415	0	103
6	551	0	112
6	553	0	113
6	701	0	121
6	703	0	121
6	795	0	126
6	841	0	126
6	1192	0	131
6	1298	0	131
6	1396	0	132
6	2122	0	136
7	8	0	8
7	16	0	14
7	49	0	34
7	116	0	61
7	410	0	103
7	465	0	108
7	565	0	114
7	722	0	121
7	744	0	126
7	814	0	126
7	840	0	126
7	1528	0	135
7	1532	0	135
7	1854	0	135
7	2158	0	136
8	9	0	9
8	29	0	25
8	62	0	39
8	64	0	40
8	88	0	49
8	153	0	66
8	237	0	92
8	244	0	93
8	297	0	97
8	310	0	97
8	352	0	100
8	480	0	108
8	617	0	120
8	717	0	121
8	719	0	121
8	779	0	126
8	847	0	126
8	850	0	126
8	945	0	129
8	1130	0	131
8	1194	0	131
8	1260	0	131
8	1360	0	131
8	1510	0	135
8	1614	0	135
8	1640	0	135
8	1708	0	135
8	1742	0	135
8	1910	0	135
8	2048	0	136
8	2300	0	136
8	2354	0	136
9	10	0	10
9	31	0	26
9	34	0	26
9	36	0	27
9	243	0	93
9	336	0	100
9	618	0	120
9	679	0	121
9	775	0	126
9	960	0	129
9	1234	0	131
9	1332	0	131
9	1478	0	135
9	1802	0	135
9	1806	0	135
9	1844	0	135
9	1994	0	136
9	2192	0	136
10	11	0	11
10	78	0	45
10	350	0	100
10	356	0	100
10	639	0	121
10	683	0	121
10	969	0	129
10	1324	0	131
10	1632	0	135
10	1808	0	135
10	1836	0	135
10	2040	0	136
11	12	0	12
11	68	0	40
11	95	0	49
11	171	0	69
11	442	0	108
11	541	0	112
11	810	0	126
11	825	0	126
11	891	0	126
11	982	0	129
11	1204	0	131
11	1288	0	131
11	1348	0	131
11	1646	0	135
11	1684	0	135
11	1934	0	136
11	2082	0	136
11	2180	0	136
11	2322	0	136
12	13	0	13
12	59	0	39
12	349	0	100
12	389	0	101
12	393	0	101
12	514	0	112
12	663	0	121
12	696	0	121
12	747	0	126
12	753	0	126
12	809	0	126
12	870	0	126
12	985	0	129
12	1318	0	131
12	1506	0	135
12	1562	0	135
12	1600	0	135
12	1694	0	135
12	2312	0	136
13	15	0	14
13	317	0	97
13	324	0	97
13	386	0	101
13	392	0	101
13	481	0	108
13	496	0	112
13	637	0	121
13	726	0	121
13	746	0	126
13	764	0	126
13	806	0	126
13	902	0	128
13	1256	0	131
13	1342	0	131
13	1368	0	131
13	1504	0	135
13	1578	0	135
13	1666	0	135
13	1968	0	136
14	17	0	15
14	74	0	42
14	189	0	71
14	306	0	97
14	409	0	103
14	690	0	121
14	797	0	126
14	813	0	126
14	1732	0	135
14	1736	0	135
14	2152	0	136
15	18	0	16
15	81	0	47
15	117	0	61
15	156	0	67
15	187	0	71
15	655	0	121
15	799	0	126
15	1294	0	131
15	2114	0	136
16	19	0	17
16	105	0	56
16	139	0	64
16	202	0	71
16	245	0	93
16	345	0	100
16	539	0	112
16	566	0	114
16	570	0	114
16	594	0	117
16	599	0	117
16	658	0	121
16	671	0	121
16	675	0	121
16	836	0	126
16	912	0	128
16	942	0	129
16	1284	0	131
16	1584	0	135
16	1710	0	135
16	1792	0	135
16	1902	0	135
16	1906	0	135
16	1946	0	136
16	2046	0	136
16	2064	0	136
17	20	0	18
17	40	0	29
17	111	0	59
17	361	0	100
17	447	0	108
17	458	0	108
17	505	0	112
17	595	0	117
17	772	0	126
17	910	0	128
17	970	0	129
17	1376	0	131
17	1556	0	135
17	1608	0	135
17	1682	0	135
17	1704	0	135
17	1816	0	135
17	2042	0	136
17	2166	0	136
17	2356	0	136
18	22	0	19
18	145	0	65
18	196	0	71
18	239	0	92
18	241	0	93
18	284	0	97
18	351	0	100
18	407	0	103
18	531	0	112
18	716	0	121
18	787	0	126
18	865	0	126
18	892	0	126
18	900	0	128
18	946	0	129
18	963	0	129
18	965	0	129
18	1166	0	131
18	1546	0	135
18	1674	0	135
18	2178	0	136
19	23	0	20
19	83	0	48
19	311	0	97
19	360	0	100
19	529	0	112
19	758	0	126
19	940	0	129
19	988	0	129
19	1544	0	135
19	1576	0	135
19	1912	0	135
19	1932	0	136
19	2084	0	136
19	2332	0	136
20	24	0	21
20	348	0	100
20	367	0	100
20	375	0	100
20	710	0	121
20	720	0	121
20	885	0	126
20	941	0	129
20	1126	0	131
20	1554	0	135
20	1962	0	136
20	2072	0	136
20	2170	0	136
21	25	0	22
21	46	0	32
21	94	0	49
21	181	0	71
21	199	0	71
21	283	0	97
21	378	0	100
21	460	0	108
21	633	0	121
21	643	0	121
21	711	0	121
21	721	0	121
21	914	0	128
21	1206	0	131
21	2000	0	136
21	2070	0	136
21	2092	0	136
22	26	0	23
22	45	0	32
22	66	0	40
22	129	0	63
22	140	0	64
22	144	0	65
22	163	0	68
22	191	0	71
22	337	0	100
22	366	0	100
22	469	0	108
22	556	0	113
22	616	0	120
22	770	0	126
22	803	0	126
22	863	0	126
22	977	0	129
22	979	0	129
22	1320	0	131
22	1622	0	135
22	1686	0	135
22	1716	0	135
22	1794	0	135
23	27	0	24
23	58	0	39
23	118	0	61
23	155	0	67
23	164	0	68
23	195	0	71
23	501	0	112
23	513	0	112
23	518	0	112
23	692	0	121
23	723	0	121
23	767	0	126
23	769	0	126
23	829	0	126
23	913	0	128
23	1164	0	131
23	1210	0	131
23	1520	0	135
23	1524	0	135
23	1588	0	135
23	1728	0	135
23	1842	0	135
23	1846	0	135
23	1862	0	135
23	2330	0	136
23	2352	0	136
24	28	0	25
24	91	0	49
24	133	0	63
24	304	0	97
24	626	0	121
24	784	0	126
24	844	0	126
24	968	0	129
24	1176	0	131
24	1574	0	135
24	1812	0	135
24	1852	0	135
24	1966	0	136
25	30	0	26
25	32	0	26
25	52	0	35
25	67	0	40
25	172	0	69
25	287	0	97
25	330	0	99
25	399	0	101
25	549	0	112
25	632	0	121
25	665	0	121
25	693	0	121
25	853	0	126
25	883	0	126
25	955	0	129
25	984	0	129
25	1128	0	131
25	1150	0	131
25	1214	0	131
25	1322	0	131
25	1586	0	135
25	1642	0	135
25	1726	0	135
25	1820	0	135
25	1882	0	135
25	2018	0	136
26	35	0	27
26	242	0	93
26	446	0	108
26	938	0	129
26	1560	0	135
26	1826	0	135
26	2358	0	136
27	37	0	28
27	54	0	36
27	293	0	97
27	299	0	97
27	422	0	103
27	443	0	108
27	670	0	121
27	761	0	126
27	818	0	126
27	852	0	126
27	917	0	128
27	1174	0	131
27	1308	0	131
27	1472	0	135
27	1680	0	135
27	1720	0	135
27	1746	0	135
28	39	0	29
28	128	0	63
28	138	0	64
28	184	0	71
28	329	0	99
28	456	0	108
28	677	0	121
28	754	0	126
28	762	0	126
28	854	0	126
28	862	0	126
28	1168	0	131
28	1286	0	131
28	1696	0	135
28	1718	0	135
29	41	0	30
29	43	0	31
29	516	0	112
29	788	0	126
29	936	0	129
29	1480	0	135
29	1630	0	135
29	1668	0	135
29	1974	0	136
29	2022	0	136
29	2186	0	136
29	2324	0	136
30	42	0	31
30	382	0	100
30	391	0	101
30	510	0	112
30	621	0	121
30	901	0	128
30	1230	0	131
30	1248	0	131
30	1664	0	135
30	2326	0	136
31	44	0	32
31	61	0	39
31	89	0	49
31	135	0	64
31	342	0	100
31	365	0	100
31	515	0	112
31	534	0	112
31	546	0	112
31	635	0	121
31	684	0	121
31	694	0	121
31	830	0	126
31	833	0	126
31	1264	0	131
31	1374	0	131
31	1864	0	135
31	2144	0	136
32	47	0	33
32	85	0	48
32	87	0	49
32	93	0	49
32	158	0	68
32	411	0	103
32	559	0	113
32	600	0	117
32	646	0	121
32	699	0	121
32	1712	0	135
32	2062	0	136
32	2154	0	136
33	48	0	34
33	562	0	114
33	793	0	126
33	1282	0	131
34	51	0	35
34	100	0	52
34	186	0	71
34	203	0	71
34	235	0	91
34	278	0	97
34	291	0	97
34	634	0	121
34	656	0	121
34	660	0	121
34	790	0	126
34	888	0	126
34	950	0	129
34	1618	0	135
34	1894	0	135
34	2128	0	136
34	2168	0	136
34	2350	0	136
35	53	0	36
35	149	0	66
35	380	0	100
35	384	0	101
35	463	0	108
35	494	0	112
35	555	0	113
35	681	0	121
35	768	0	126
35	920	0	128
35	961	0	129
35	978	0	129
35	1134	0	131
35	1628	0	135
35	1840	0	135
35	1920	0	135
36	55	0	37
36	107	0	56
36	193	0	71
36	197	0	71
36	286	0	97
36	335	0	100
36	408	0	103
36	459	0	108
36	525	0	112
36	537	0	112
36	644	0	121
36	668	0	121
36	673	0	121
36	724	0	121
36	759	0	126
36	807	0	126
36	880	0	126
36	1142	0	131
36	1274	0	131
36	1306	0	131
36	1672	0	135
36	1700	0	135
36	2076	0	136
36	2124	0	136
36	2302	0	136
37	56	0	38
37	72	0	42
37	295	0	97
37	1190	0	131
37	1856	0	135
37	1886	0	135
37	2056	0	136
38	57	0	39
38	412	0	103
38	561	0	114
38	645	0	121
38	2060	0	136
38	2104	0	136
39	63	0	40
39	165	0	68
39	397	0	101
39	467	0	108
39	563	0	114
39	674	0	121
39	801	0	126
39	905	0	128
39	1356	0	131
39	1516	0	135
39	2068	0	136
39	2102	0	136
39	2106	0	136
39	2138	0	136
40	69	0	41
40	141	0	64
40	285	0	97
40	321	0	97
40	426	0	103
40	482	0	108
40	530	0	112
40	545	0	112
40	697	0	121
40	839	0	126
40	845	0	126
40	947	0	129
40	957	0	129
40	983	0	129
40	1136	0	131
40	1144	0	131
40	1326	0	131
40	1564	0	135
40	1616	0	135
40	1930	0	136
40	2132	0	136
40	2162	0	136
41	70	0	42
41	120	0	61
41	176	0	70
41	179	0	71
41	198	0	71
41	290	0	97
41	353	0	100
41	376	0	100
41	379	0	100
41	550	0	112
41	654	0	121
41	712	0	121
41	752	0	126
41	805	0	126
41	824	0	126
41	827	0	126
41	873	0	126
41	915	0	128
41	980	0	129
41	1148	0	131
41	1394	0	132
41	1488	0	135
41	1536	0	135
41	1602	0	135
41	1868	0	135
41	1878	0	135
41	2126	0	136
41	2140	0	136
42	75	0	43
42	92	0	49
42	146	0	65
42	159	0	68
42	185	0	71
42	294	0	97
42	305	0	97
42	417	0	103
42	472	0	108
42	499	0	112
42	615	0	120
42	725	0	121
42	774	0	126
42	811	0	126
42	1188	0	131
42	1196	0	131
42	1268	0	131
42	1334	0	131
42	1514	0	135
42	1626	0	135
42	1676	0	135
42	1702	0	135
42	1714	0	135
42	2086	0	136
43	76	0	44
43	127	0	63
43	338	0	100
43	474	0	108
43	477	0	108
43	543	0	112
43	708	0	121
43	781	0	126
43	835	0	126
43	857	0	126
43	911	0	128
43	1208	0	131
43	1388	0	132
43	1678	0	135
43	1870	0	135
43	2002	0	136
43	2074	0	136
43	2296	0	136
43	2338	0	136
44	77	0	45
44	119	0	61
44	316	0	97
44	344	0	100
44	421	0	103
44	457	0	108
44	473	0	108
44	478	0	108
44	498	0	112
44	542	0	112
44	597	0	117
44	629	0	121
44	682	0	121
44	713	0	121
44	783	0	126
44	789	0	126
44	875	0	126
44	975	0	129
44	1146	0	131
44	1366	0	131
44	1370	0	131
44	1378	0	131
44	1508	0	135
44	1830	0	135
44	1896	0	135
44	1984	0	136
44	2146	0	136
44	2308	0	136
45	79	0	46
45	90	0	49
45	147	0	65
45	334	0	100
45	638	0	121
45	1216	0	131
45	1240	0	131
45	1476	0	135
45	1548	0	135
45	1612	0	135
45	1688	0	135
45	1740	0	135
45	2142	0	136
46	80	0	47
46	169	0	69
46	318	0	97
46	363	0	100
46	416	0	103
46	453	0	108
46	519	0	112
46	554	0	113
46	569	0	114
46	627	0	121
46	831	0	126
46	861	0	126
46	962	0	129
46	1182	0	131
46	1258	0	131
46	1474	0	135
46	1492	0	135
46	1552	0	135
46	1940	0	136
46	2054	0	136
47	82	0	48
47	309	0	97
47	672	0	121
47	691	0	121
47	778	0	126
47	782	0	126
47	823	0	126
47	828	0	126
47	837	0	126
47	843	0	126
47	906	0	128
47	1140	0	131
47	1162	0	131
47	1178	0	131
47	1590	0	135
47	1998	0	136
47	2160	0	136
48	86	0	49
48	150	0	66
48	307	0	97
48	313	0	97
48	450	0	108
48	547	0	112
48	557	0	113
48	564	0	114
48	601	0	117
48	628	0	121
48	642	0	121
48	678	0	121
48	777	0	126
48	808	0	126
48	821	0	126
48	849	0	126
48	1158	0	131
48	1170	0	131
48	1198	0	131
48	1278	0	131
48	1300	0	131
48	1538	0	135
48	1866	0	135
48	2098	0	136
48	2164	0	136
49	97	0	50
49	115	0	61
49	166	0	68
49	280	0	97
49	320	0	97
49	328	0	99
49	786	0	126
49	802	0	126
49	907	0	128
49	959	0	129
49	1180	0	131
49	1312	0	131
49	1364	0	131
49	1606	0	135
49	1800	0	135
49	1814	0	135
49	1988	0	136
49	2108	0	136
49	2136	0	136
49	2340	0	136
50	98	0	51
50	132	0	63
50	152	0	66
50	341	0	100
50	471	0	108
50	484	0	108
50	507	0	112
50	598	0	117
50	688	0	121
50	817	0	126
50	874	0	126
50	1154	0	131
50	1200	0	131
50	1634	0	135
50	1938	0	136
50	2066	0	136
50	2096	0	136
50	2110	0	136
50	2156	0	136
51	99	0	52
51	106	0	56
51	126	0	63
51	131	0	63
51	279	0	97
51	347	0	100
51	354	0	100
51	502	0	112
51	773	0	126
51	997	0	129
51	1272	0	131
51	1328	0	131
51	1498	0	135
51	1568	0	135
51	1944	0	136
51	2078	0	136
52	101	0	53
52	261	0	95
52	266	0	96
52	709	0	121
52	1048	0	131
52	1054	0	131
52	1400	0	132
52	1404	0	132
52	1430	0	132
52	1760	0	135
52	1776	0	135
52	1780	0	135
53	102	0	54
53	250	0	93
53	374	0	100
53	2244	0	136
54	103	0	55
54	122	0	62
54	130	0	63
54	162	0	68
54	288	0	97
54	423	0	103
54	521	0	112
54	596	0	117
54	755	0	126
54	859	0	126
54	884	0	126
54	908	0	128
54	949	0	129
54	989	0	129
54	1072	0	131
54	1080	0	131
54	1120	0	131
54	1522	0	135
54	1874	0	135
54	1964	0	136
54	2052	0	136
54	2286	0	136
55	104	0	56
55	1398	0	132
55	1406	0	132
55	1468	0	135
55	2004	0	136
55	2214	0	136
56	108	0	57
56	137	0	64
56	151	0	66
56	192	0	71
56	332	0	99
56	387	0	101
56	428	0	103
56	485	0	108
56	523	0	112
56	630	0	121
56	718	0	121
56	815	0	126
56	951	0	129
56	1138	0	131
56	1310	0	131
56	1542	0	135
56	1822	0	135
56	1982	0	136
56	1996	0	136
56	2020	0	136
56	2348	0	136
57	109	0	58
57	136	0	64
57	182	0	71
57	355	0	100
57	406	0	103
57	424	0	103
57	451	0	108
57	508	0	112
57	567	0	114
57	661	0	121
57	666	0	121
57	695	0	121
57	749	0	126
57	771	0	126
57	966	0	129
57	1078	0	131
57	1314	0	131
57	1352	0	131
57	1490	0	135
57	1810	0	135
57	1892	0	135
57	1914	0	135
57	2130	0	136
57	2172	0	136
57	2342	0	136
58	110	0	59
58	112	0	59
58	194	0	71
58	200	0	71
58	314	0	97
58	535	0	112
58	544	0	112
58	651	0	121
58	766	0	126
58	776	0	126
58	856	0	126
58	879	0	126
58	881	0	126
58	998	0	129
58	1124	0	131
58	1724	0	135
58	1936	0	136
58	2044	0	136
59	113	0	60
59	123	0	62
59	161	0	68
59	180	0	71
59	312	0	97
59	400	0	101
59	404	0	103
59	418	0	103
59	425	0	103
59	503	0	112
59	524	0	112
59	756	0	126
59	804	0	126
59	878	0	126
59	919	0	128
59	1172	0	131
59	1302	0	131
59	1486	0	135
59	1512	0	135
59	1706	0	135
59	2298	0	136
59	2304	0	136
60	114	0	61
60	183	0	71
60	201	0	71
60	289	0	97
60	300	0	97
60	302	0	97
60	315	0	97
60	448	0	108
60	462	0	108
60	522	0	112
60	860	0	126
60	876	0	126
60	981	0	129
60	1252	0	131
60	1276	0	131
60	1382	0	131
60	1540	0	135
60	1798	0	135
60	2148	0	136
60	2318	0	136
61	121	0	62
61	160	0	68
61	175	0	70
61	301	0	97
61	625	0	121
61	631	0	121
61	757	0	126
61	832	0	126
61	834	0	126
61	882	0	126
61	909	0	128
61	943	0	129
61	958	0	129
61	1496	0	135
61	1598	0	135
61	1620	0	135
62	125	0	63
62	298	0	97
62	452	0	108
62	624	0	121
62	650	0	121
62	687	0	121
62	751	0	126
62	785	0	126
62	846	0	126
62	1392	0	132
62	1502	0	135
62	1698	0	135
62	1828	0	135
62	1926	0	136
62	2090	0	136
62	2310	0	136
63	134	0	64
63	281	0	97
63	322	0	97
63	325	0	97
63	331	0	99
63	420	0	103
63	479	0	108
63	493	0	112
63	527	0	112
63	641	0	121
63	848	0	126
63	939	0	129
63	954	0	129
63	1202	0	131
63	1218	0	131
63	1482	0	135
63	1824	0	135
64	142	0	65
64	343	0	100
64	359	0	100
64	388	0	101
64	390	0	101
64	429	0	103
64	454	0	108
64	622	0	121
64	649	0	121
64	1132	0	131
64	1160	0	131
64	1266	0	131
64	1558	0	135
64	1572	0	135
64	1832	0	135
64	1992	0	136
65	148	0	66
65	323	0	97
65	381	0	100
65	440	0	108
65	932	0	129
65	934	0	129
65	1220	0	131
65	1242	0	131
65	1340	0	131
65	1650	0	135
65	1654	0	135
65	1970	0	136
65	1980	0	136
65	2360	0	136
66	154	0	67
66	340	0	100
66	395	0	101
66	413	0	103
66	466	0	108
66	476	0	108
66	500	0	112
66	558	0	113
66	604	0	117
66	647	0	121
66	791	0	126
66	889	0	126
66	974	0	129
66	1290	0	131
66	1858	0	135
66	1888	0	135
66	1908	0	135
66	2058	0	136
67	157	0	68
67	396	0	101
67	700	0	121
67	800	0	126
67	1292	0	131
67	2118	0	136
68	168	0	69
68	377	0	100
68	468	0	108
68	614	0	120
68	664	0	121
68	702	0	121
68	704	0	121
68	842	0	126
68	916	0	128
68	967	0	129
68	973	0	129
68	999	0	129
68	1002	0	130
68	1152	0	131
68	1350	0	131
68	1592	0	135
68	1604	0	135
68	2016	0	136
68	2112	0	136
68	2196	0	136
68	2320	0	136
69	173	0	70
69	238	0	92
69	292	0	97
69	364	0	100
69	526	0	112
69	538	0	112
69	653	0	121
69	662	0	121
69	858	0	126
69	864	0	126
69	877	0	126
69	990	0	129
69	992	0	129
69	1122	0	131
69	1494	0	135
69	1636	0	135
69	1722	0	135
69	2334	0	136
70	178	0	71
70	602	0	117
70	798	0	126
70	872	0	126
70	887	0	126
70	1280	0	131
70	1358	0	131
70	1530	0	135
70	1594	0	135
70	1730	0	135
70	1860	0	135
71	204	0	72
71	234	0	91
71	589	0	117
71	593	0	117
71	659	0	121
71	1010	0	130
71	1020	0	130
71	1026	0	130
71	1046	0	131
71	1082	0	131
71	1428	0	132
71	1948	0	136
71	2006	0	136
71	2014	0	136
71	2204	0	136
71	2288	0	136
71	2294	0	136
72	205	0	73
72	230	0	90
72	590	0	117
72	612	0	119
72	1008	0	130
72	1778	0	135
72	2232	0	136
72	2240	0	136
72	2274	0	136
72	2290	0	136
73	206	0	74
73	210	0	77
73	231	0	90
73	267	0	96
73	571	0	114
73	1024	0	130
73	1086	0	131
73	1408	0	132
73	1414	0	132
73	2256	0	136
73	2266	0	136
74	207	0	75
74	255	0	93
74	572	0	114
74	608	0	118
74	1058	0	131
74	1068	0	131
74	1764	0	135
74	1956	0	136
74	2234	0	136
74	2254	0	136
74	2264	0	136
75	208	0	76
75	262	0	95
75	265	0	96
75	592	0	117
75	607	0	118
75	609	0	118
75	1060	0	131
75	1084	0	131
75	1402	0	132
75	1756	0	135
75	1770	0	135
75	1954	0	136
75	2008	0	136
75	2012	0	136
75	2282	0	136
76	209	0	77
76	268	0	96
76	372	0	100
76	1094	0	131
76	1112	0	131
76	1416	0	132
76	1766	0	135
76	1782	0	135
76	2224	0	136
76	2248	0	136
76	2270	0	136
77	211	0	78
77	277	0	97
77	1032	0	130
77	1116	0	131
77	1432	0	132
77	2208	0	136
77	2284	0	136
78	212	0	79
78	222	0	86
78	586	0	117
78	1006	0	130
78	1088	0	131
78	1420	0	132
78	1752	0	135
78	2228	0	136
79	213	0	80
79	215	0	81
79	217	0	82
79	273	0	96
79	370	0	100
79	1102	0	131
80	214	0	81
80	224	0	86
80	254	0	93
80	264	0	96
80	271	0	96
80	581	0	117
80	1092	0	131
80	1110	0	131
80	1422	0	132
80	1754	0	135
80	2226	0	136
81	216	0	82
81	369	0	100
81	579	0	117
81	585	0	117
81	1014	0	130
81	1096	0	131
81	1100	0	131
81	1784	0	135
81	2260	0	136
81	2278	0	136
82	218	0	83
82	225	0	86
82	258	0	94
82	371	0	100
82	611	0	119
82	1016	0	130
82	1098	0	131
82	2272	0	136
83	219	0	84
83	232	0	90
83	587	0	117
83	1018	0	130
83	1030	0	130
83	1044	0	131
83	1090	0	131
83	1772	0	135
83	2268	0	136
83	2276	0	136
84	220	0	85
84	223	0	86
84	248	0	93
84	251	0	93
84	253	0	93
84	575	0	116
84	584	0	117
84	1106	0	131
84	1424	0	132
84	1750	0	135
84	2262	0	136
85	221	0	86
85	247	0	93
85	249	0	93
85	252	0	93
85	1070	0	131
86	226	0	87
86	256	0	93
86	270	0	96
86	580	0	117
86	583	0	117
86	591	0	117
86	1062	0	131
86	1066	0	131
86	1418	0	132
86	1958	0	136
86	2220	0	136
87	227	0	88
87	274	0	96
88	228	0	89
88	276	0	97
88	1052	0	131
88	1064	0	131
88	2200	0	136
89	229	0	90
89	246	0	93
89	260	0	95
89	588	0	117
89	1038	0	131
89	1042	0	131
89	1056	0	131
89	1466	0	135
89	1762	0	135
89	2210	0	136
90	233	0	91
90	1050	0	131
90	1114	0	131
90	1758	0	135
90	2202	0	136
91	236	0	92
91	405	0	103
91	449	0	108
91	455	0	108
91	706	0	121
91	890	0	126
91	972	0	129
91	1184	0	131
91	1986	0	136
92	240	0	93
92	620	0	121
92	867	0	126
92	921	0	128
92	925	0	129
92	1222	0	131
92	1656	0	135
92	1662	0	135
92	1922	0	135
92	2024	0	136
92	2184	0	136
92	2346	0	136
93	257	0	94
93	272	0	96
93	576	0	116
93	578	0	117
93	582	0	117
93	1104	0	131
93	1108	0	131
93	2230	0	136
94	259	0	95
94	269	0	96
94	1022	0	130
94	1788	0	135
94	2250	0	136
94	2258	0	136
94	2280	0	136
94	2292	0	136
95	263	0	96
95	368	0	100
95	373	0	100
95	1012	0	130
95	1118	0	131
95	1426	0	132
95	1960	0	136
95	2222	0	136
95	2246	0	136
96	275	0	97
96	1952	0	136
97	326	0	98
97	714	0	121
97	922	0	128
97	953	0	129
97	1076	0	131
97	1238	0	131
97	1648	0	135
97	1804	0	135
97	2088	0	136
97	2182	0	136
97	2306	0	136
97	2344	0	136
98	327	0	99
98	358	0	100
98	385	0	101
98	461	0	108
98	509	0	112
98	528	0	112
98	548	0	112
98	568	0	114
98	855	0	126
98	935	0	129
98	995	0	129
98	1250	0	131
98	1330	0	131
98	1372	0	131
98	1500	0	135
98	1550	0	135
98	1566	0	135
98	1570	0	135
98	1638	0	135
98	1990	0	136
98	2174	0	136
98	2316	0	136
98	2328	0	136
99	333	0	100
99	441	0	108
99	866	0	126
99	893	0	126
99	1232	0	131
99	1338	0	131
99	2314	0	136
100	383	0	101
100	686	0	121
100	994	0	129
100	1838	0	135
100	2034	0	136
100	2362	0	136
101	401	0	102
101	403	0	103
101	419	0	103
101	445	0	108
101	680	0	121
101	1918	0	135
101	2190	0	136
101	2378	0	142
102	402	0	103
103	430	0	104
103	743	0	126
103	745	0	126
103	904	0	128
104	431	0	105
104	439	0	108
104	731	0	124
104	903	0	128
105	432	0	106
105	436	0	108
105	730	0	124
105	739	0	126
106	433	0	107
106	435	0	108
106	438	0	108
106	732	0	124
106	734	0	125
106	740	0	126
107	434	0	108
107	437	0	108
107	737	0	126
108	486	0	109
108	511	0	112
108	868	0	126
108	898	0	128
108	1226	0	131
108	1244	0	131
108	1924	0	135
108	1978	0	136
108	2026	0	136
108	2030	0	136
109	487	0	110
109	489	0	111
109	492	0	112
109	923	0	128
109	937	0	129
109	1246	0	131
109	2032	0	136
110	488	0	111
110	491	0	112
110	927	0	129
110	1658	0	135
111	490	0	112
111	894	0	126
111	926	0	129
111	928	0	129
111	1972	0	136
112	552	0	113
112	603	0	117
112	605	0	117
112	794	0	126
112	2116	0	136
112	2120	0	136
113	560	0	114
113	792	0	126
113	796	0	126
114	573	0	115
114	1748	0	135
115	574	0	116
115	2238	0	136
116	577	0	117
117	606	0	118
117	1000	0	129
117	1034	0	130
117	2206	0	136
117	2216	0	136
118	610	0	119
118	1040	0	131
118	1768	0	135
118	1774	0	135
118	1786	0	135
118	2218	0	136
118	2236	0	136
118	2242	0	136
118	2252	0	136
119	613	0	120
119	1004	0	130
119	1028	0	130
119	1412	0	132
119	1872	0	135
119	1904	0	135
120	619	0	121
120	715	0	121
120	869	0	126
120	897	0	128
120	929	0	129
120	1224	0	131
120	1344	0	131
120	1834	0	135
120	2028	0	136
120	2176	0	136
120	2188	0	136
121	727	0	122
121	742	0	126
121	812	0	126
121	1580	0	135
122	728	0	123
123	729	0	124
123	735	0	125
123	741	0	126
124	733	0	125
124	738	0	126
125	736	0	126
126	895	0	127
126	933	0	129
126	1228	0	131
126	2038	0	136
127	896	0	128
127	930	0	129
127	1652	0	135
127	1660	0	135
128	924	0	129
128	931	0	129
128	1976	0	136
128	2036	0	136
129	1036	0	131
129	1434	0	132
129	1444	0	135
129	1450	0	135
129	1464	0	135
130	1410	0	132
130	1790	0	135
130	2010	0	136
130	2198	0	136
130	2212	0	136
131	1436	0	133
131	1446	0	135
131	1454	0	135
131	1458	0	135
132	1438	0	134
132	1442	0	135
132	1456	0	135
132	1460	0	135
133	1440	0	135
133	1448	0	135
133	1452	0	135
133	1462	0	135
134	1950	0	136
135	2364	0	137
136	2366	0	138
137	2368	0	139
137	2372	0	140
138	2370	0	140
139	2374	0	141
140	2376	0	142
140	2380	0	142
141	2382	0	143
142	2384	0	144
143	2386	0	145

