file 62432 1756984404                                           
version 3
run General-435-20250904-14:13:24-15934
attr configname General
attr datetime 20250904-14:13:24
attr datetimef 20250904-141324
attr experiment General
attr inifile omnetpp.ini
attr iterationvars ""
attr iterationvarsd ""
attr iterationvarsf ""
attr measurement ""
attr network TaxiNetwork
attr processid 15934
attr repetition 435
attr replication #435
attr resultdir results
attr runnumber 435
attr seedset 435
config network TaxiNetwork
config seed-set 435
config num-rngs 1
config sim-time-limit 10s
config repeat 500
config *.numWalkers 1
config *.enableDuplication true
config *.rc 700
config **.node[0].xCor 2933
config **.node[0].yCor 2747
config **.node[1].xCor 2919
config **.node[1].yCor 2817
config **.node[2].xCor 2910
config **.node[2].yCor 2861
config **.node[3].xCor 2429
config **.node[3].yCor 2851
config **.node[4].xCor 2908
config **.node[4].yCor 2714
config **.node[5].xCor 2606
config **.node[5].yCor 2722
config **.node[6].xCor 2575
config **.node[6].yCor 2753
config **.node[7].xCor 2654
config **.node[7].yCor 2513
config **.node[8].xCor 2773
config **.node[8].yCor 2580
config **.node[9].xCor 3043
config **.node[9].yCor 2780
config **.node[10].xCor 3020
config **.node[10].yCor 2813
config **.node[11].xCor 2599
config **.node[11].yCor 2300
config **.node[12].xCor 2917
config **.node[12].yCor 2698
config **.node[13].xCor 2625
config **.node[13].yCor 2641
config **.node[14].xCor 2604
config **.node[14].yCor 2790
config **.node[15].xCor 2786
config **.node[15].yCor 3082
config **.node[16].xCor 2603
config **.node[16].yCor 2802
config **.node[17].xCor 2637
config **.node[17].yCor 2869
config **.node[18].xCor 2675
config **.node[18].yCor 2955
config **.node[19].xCor 2845
config **.node[19].yCor 2937
config **.node[20].xCor 2860
config **.node[20].yCor 2888
config **.node[21].xCor 2843
config **.node[21].yCor 4158
config **.node[22].xCor 2852
config **.node[22].yCor 4017
config **.node[23].xCor 2892
config **.node[23].yCor 4961
config **.node[24].xCor 2313
config **.node[24].yCor 3993
config **.node[25].xCor 2891
config **.node[25].yCor 4959
config **.node[26].xCor 2370
config **.node[26].yCor 4050
config **.node[27].xCor 2788
config **.node[27].yCor 3958
config **.node[28].xCor 2819
config **.node[28].yCor 4428
config **.node[29].xCor 2790
config **.node[29].yCor 3761
config **.node[30].xCor 2809
config **.node[30].yCor 2908
config **.node[31].xCor 2919
config **.node[31].yCor 3575
config **.node[32].xCor 2946
config **.node[32].yCor 3466
config **.node[33].xCor 2911
config **.node[33].yCor 3453
config **.node[34].xCor 2370
config **.node[34].yCor 3656
config **.node[35].xCor 2438
config **.node[35].yCor 3738
config **.node[36].xCor 2737
config **.node[36].yCor 3570
config **.node[37].xCor 2921
config **.node[37].yCor 3698
config **.node[38].xCor 2907
config **.node[38].yCor 5197
config **.node[39].xCor 2860
config **.node[39].yCor 3852
config **.node[40].xCor 2927
config **.node[40].yCor 3684
config **.node[41].xCor 3023
config **.node[41].yCor 5313
config **.node[42].xCor 3220
config **.node[42].yCor 5811
config **.node[43].xCor 3432
config **.node[43].yCor 5715
config **.node[44].xCor 2754
config **.node[44].yCor 2463
config **.node[45].xCor 2646
config **.node[45].yCor 2673
config **.node[46].xCor 3051
config **.node[46].yCor 2792
config **.node[47].xCor 1666
config **.node[47].yCor 3697
config **.node[48].xCor 1662
config **.node[48].yCor 3694
config **.node[49].xCor 1664
config **.node[49].yCor 3667
config **.node[50].xCor 1660
config **.node[50].yCor 3664
config **.node[51].xCor 1710
config **.node[51].yCor 3573
config **.node[52].xCor 2082
config **.node[52].yCor 2650
config **.node[53].xCor 2086
config **.node[53].yCor 2657
config **.node[54].xCor 2257
config **.node[54].yCor 3232
config **.node[55].xCor 2258
config **.node[55].yCor 3225
config **.node[56].xCor 1926
config **.node[56].yCor 2570
config **.node[57].xCor 1926
config **.node[57].yCor 2576
config **.node[58].xCor 2104
config **.node[58].yCor 1758
config **.node[59].xCor 1957
config **.node[59].yCor 1826
config **.node[60].xCor 3473
config **.node[60].yCor 1523
config **.node[61].xCor 3335
config **.node[61].yCor 1726
config **.node[62].xCor 3478
config **.node[62].yCor 1517
config **.node[63].xCor 3386
config **.node[63].yCor 2119
config **.node[64].xCor 3474
config **.node[64].yCor 1762
config **.node[65].xCor 3797
config **.node[65].yCor 2099
config **.node[66].xCor 3642
config **.node[66].yCor 2136
config **.node[67].xCor 3481
config **.node[67].yCor 2334
config **.node[68].xCor 3088
config **.node[68].yCor 1505
config **.node[69].xCor 3037
config **.node[69].yCor 1693
config **.node[70].xCor 3026
config **.node[70].yCor 1700
config **.node[71].xCor 3019
config **.node[71].yCor 669
config **.node[72].xCor 3513
config **.node[72].yCor 1358
config **.node[73].xCor 3545
config **.node[73].yCor 1230
config **.node[74].xCor 4228
config **.node[74].yCor 4220
config **.node[75].xCor 3379
config **.node[75].yCor 1207
config **.node[76].xCor 3596
config **.node[76].yCor 963
config **.node[77].xCor 3637
config **.node[77].yCor 1188
config **.node[78].xCor 3759
config **.node[78].yCor 1030
config **.node[79].xCor 2918
config **.node[79].yCor 1455
config **.node[80].xCor 2711
config **.node[80].yCor 1297
config **.node[81].xCor 439
config **.node[81].yCor 1623
config **.node[82].xCor 2857
config **.node[82].yCor 3581
config **.node[83].xCor 2858
config **.node[83].yCor 3584
config **.node[84].xCor 2999
config **.node[84].yCor 2636
config **.node[85].xCor 2905
config **.node[85].yCor 2778
config **.node[86].xCor 2653
config **.node[86].yCor 2845
config **.node[87].xCor 2864
config **.node[87].yCor 2836
config **.node[88].xCor 2426
config **.node[88].yCor 2892
config **.node[89].xCor 2964
config **.node[89].yCor 2804
config **.node[90].xCor 2586
config **.node[90].yCor 3135
config **.node[91].xCor 2864
config **.node[91].yCor 2980
config **.node[92].xCor 2527
config **.node[92].yCor 3219
config **.node[93].xCor 2863
config **.node[93].yCor 3142
config **.node[94].xCor 2485
config **.node[94].yCor 3269
config **.node[95].xCor 2653
config **.node[95].yCor 1065
config **.node[96].xCor 4062
config **.node[96].yCor 400
config **.node[97].xCor 5762
config **.node[97].yCor 3023
config **.node[98].xCor 1414
config **.node[98].yCor 3461
config **.node[99].xCor 2911
config **.node[99].yCor 1737
config **.node[100].xCor 2595
config **.node[100].yCor 2299
config **.node[101].xCor 2702
config **.node[101].yCor 3419
config **.node[102].xCor 2813
config **.node[102].yCor 3307
config **.node[103].xCor 2638
config **.node[103].yCor 2258
config **.node[104].xCor 2590
config **.node[104].yCor 3125
config **.node[105].xCor 1856
config **.node[105].yCor 2990
config **.node[106].xCor 1894
config **.node[106].yCor 2239
config **.node[107].xCor 383
config **.node[107].yCor 1251
config **.node[108].xCor 3447
config **.node[108].yCor 5489
config **.node[109].xCor 3450
config **.node[109].yCor 5697
config **.node[110].xCor 2719
config **.node[110].yCor 1920
config **.node[111].xCor 2085
config **.node[111].yCor 2389
config **.node[112].xCor 1910
config **.node[112].yCor 2548
config **.node[113].xCor 2069
config **.node[113].yCor 2050
config **.node[114].xCor 2184
config **.node[114].yCor 2209
config **.node[115].xCor 2278
config **.node[115].yCor 2390
config **.node[116].xCor 2249
config **.node[116].yCor 2299
config **.node[117].xCor 2356
config **.node[117].yCor 2303
config **.node[118].xCor 2192
config **.node[118].yCor 2475
config **.node[119].xCor 1720
config **.node[119].yCor 2911
config **.node[120].xCor 2400
config **.node[120].yCor 2887
config **.node[121].xCor 3344
config **.node[121].yCor 1890
config **.node[122].xCor 3136
config **.node[122].yCor 2418
config **.node[123].xCor 3243
config **.node[123].yCor 2525
config **.node[124].xCor 2396
config **.node[124].yCor 1267
config **.node[125].xCor 467
config **.node[125].yCor 1875
config **.node[126].xCor 3506
config **.node[126].yCor 1221
config **.node[127].xCor 1034
config **.node[127].yCor 1474
config **.node[128].xCor 2908
config **.node[128].yCor 1784
config **.node[129].xCor 2876
config **.node[129].yCor 1761
config **.node[130].xCor 2849
config **.node[130].yCor 1795
config **.node[131].xCor 3029
config **.node[131].yCor 1859
config **.node[132].xCor 2924
config **.node[132].yCor 1848
config **.node[133].xCor 3493
config **.node[133].yCor 1559
config **.node[134].xCor 2760
config **.node[134].yCor 1761
config **.node[135].xCor 1644
config **.node[135].yCor 3755
config **.node[136].xCor 1463
config **.node[136].yCor 3432
config **.node[137].xCor 2595
config **.node[137].yCor 2849
config **.node[138].xCor 2581
config **.node[138].yCor 2867
config **.node[139].xCor 2524
config **.node[139].yCor 2911
config **.node[140].xCor 2570
config **.node[140].yCor 2924
config **.node[141].xCor 2676
config **.node[141].yCor 2890
config **.node[142].xCor 2666
config **.node[142].yCor 2876
config **.node[143].xCor 3735
config **.node[143].yCor 1726
config **.node[144].xCor 1637
config **.node[144].yCor 3438

vector 0 TaxiNetwork.node[2] visitedPerTimestep ETV
vector 1 TaxiNetwork.node[6] visitedPerTimestep ETV
vector 2 TaxiNetwork.node[53] visitedPerTimestep ETV
vector 3 TaxiNetwork.node[45] visitedPerTimestep ETV
vector 4 TaxiNetwork.node[88] visitedPerTimestep ETV
vector 5 TaxiNetwork.node[20] visitedPerTimestep ETV
vector 6 TaxiNetwork.node[4] visitedPerTimestep ETV
vector 7 TaxiNetwork.node[86] visitedPerTimestep ETV
vector 8 TaxiNetwork.node[8] visitedPerTimestep ETV
vector 9 TaxiNetwork.node[90] visitedPerTimestep ETV
vector 10 TaxiNetwork.node[91] visitedPerTimestep ETV
vector 11 TaxiNetwork.node[16] visitedPerTimestep ETV
vector 12 TaxiNetwork.node[142] visitedPerTimestep ETV
vector 13 TaxiNetwork.node[33] visitedPerTimestep ETV
vector 14 TaxiNetwork.node[141] visitedPerTimestep ETV
vector 15 TaxiNetwork.node[115] visitedPerTimestep ETV
vector 16 TaxiNetwork.node[11] visitedPerTimestep ETV
vector 17 TaxiNetwork.node[9] visitedPerTimestep ETV
vector 18 TaxiNetwork.node[87] visitedPerTimestep ETV
vector 19 TaxiNetwork.node[13] visitedPerTimestep ETV
vector 20 TaxiNetwork.node[112] visitedPerTimestep ETV
vector 21 TaxiNetwork.node[116] visitedPerTimestep ETV
vector 22 TaxiNetwork.node[84] visitedPerTimestep ETV
vector 23 TaxiNetwork.node[63] visitedPerTimestep ETV
vector 24 TaxiNetwork.node[128] visitedPerTimestep ETV
vector 25 TaxiNetwork.node[122] visitedPerTimestep ETV
vector 26 TaxiNetwork.node[46] visitedPerTimestep ETV
vector 27 TaxiNetwork.node[44] visitedPerTimestep ETV
vector 28 TaxiNetwork.node[123] visitedPerTimestep ETV
vector 29 TaxiNetwork.node[1] visitedPerTimestep ETV
vector 30 TaxiNetwork.node[30] visitedPerTimestep ETV
vector 31 TaxiNetwork.node[12] visitedPerTimestep ETV
vector 32 TaxiNetwork.node[10] visitedPerTimestep ETV
vector 33 TaxiNetwork.node[7] visitedPerTimestep ETV
vector 34 TaxiNetwork.node[93] visitedPerTimestep ETV
vector 35 TaxiNetwork.node[83] visitedPerTimestep ETV
vector 36 TaxiNetwork.node[39] visitedPerTimestep ETV
vector 37 TaxiNetwork.node[40] visitedPerTimestep ETV
vector 38 TaxiNetwork.node[82] visitedPerTimestep ETV
vector 39 TaxiNetwork.node[21] visitedPerTimestep ETV
vector 40 TaxiNetwork.node[32] visitedPerTimestep ETV
vector 41 TaxiNetwork.node[15] visitedPerTimestep ETV
vector 42 TaxiNetwork.node[101] visitedPerTimestep ETV
vector 43 TaxiNetwork.node[19] visitedPerTimestep ETV
vector 44 TaxiNetwork.node[36] visitedPerTimestep ETV
vector 45 TaxiNetwork.node[92] visitedPerTimestep ETV
vector 46 TaxiNetwork.node[18] visitedPerTimestep ETV
vector 47 TaxiNetwork.node[103] visitedPerTimestep ETV
vector 48 TaxiNetwork.node[89] visitedPerTimestep ETV
vector 49 TaxiNetwork.node[139] visitedPerTimestep ETV
vector 50 TaxiNetwork.node[14] visitedPerTimestep ETV
vector 51 TaxiNetwork.node[17] visitedPerTimestep ETV
vector 52 TaxiNetwork.node[130] visitedPerTimestep ETV
vector 53 TaxiNetwork.node[120] visitedPerTimestep ETV
vector 54 TaxiNetwork.node[54] visitedPerTimestep ETV
vector 55 TaxiNetwork.node[3] visitedPerTimestep ETV
vector 56 TaxiNetwork.node[140] visitedPerTimestep ETV
vector 57 TaxiNetwork.node[100] visitedPerTimestep ETV
vector 58 TaxiNetwork.node[5] visitedPerTimestep ETV
vector 59 TaxiNetwork.node[85] visitedPerTimestep ETV
vector 60 TaxiNetwork.node[105] visitedPerTimestep ETV
vector 61 TaxiNetwork.node[57] visitedPerTimestep ETV
vector 62 TaxiNetwork.node[119] visitedPerTimestep ETV
vector 63 TaxiNetwork.node[106] visitedPerTimestep ETV
vector 64 TaxiNetwork.node[114] visitedPerTimestep ETV
vector 65 TaxiNetwork.node[111] visitedPerTimestep ETV
vector 66 TaxiNetwork.node[55] visitedPerTimestep ETV
vector 67 TaxiNetwork.node[52] visitedPerTimestep ETV
vector 68 TaxiNetwork.node[56] visitedPerTimestep ETV
vector 69 TaxiNetwork.node[29] visitedPerTimestep ETV
vector 70 TaxiNetwork.node[137] visitedPerTimestep ETV
vector 71 TaxiNetwork.node[118] visitedPerTimestep ETV
vector 72 TaxiNetwork.node[31] visitedPerTimestep ETV
vector 73 TaxiNetwork.node[102] visitedPerTimestep ETV
vector 74 TaxiNetwork.node[138] visitedPerTimestep ETV
vector 75 TaxiNetwork.node[104] visitedPerTimestep ETV
vector 76 TaxiNetwork.node[110] visitedPerTimestep ETV
vector 77 TaxiNetwork.node[134] visitedPerTimestep ETV
vector 78 TaxiNetwork.node[58] visitedPerTimestep ETV
vector 79 TaxiNetwork.node[26] visitedPerTimestep ETV
vector 80 TaxiNetwork.node[27] visitedPerTimestep ETV
vector 81 TaxiNetwork.node[34] visitedPerTimestep ETV
vector 82 TaxiNetwork.node[94] visitedPerTimestep ETV
vector 83 TaxiNetwork.node[0] visitedPerTimestep ETV
vector 84 TaxiNetwork.node[60] visitedPerTimestep ETV
vector 85 TaxiNetwork.node[129] visitedPerTimestep ETV
vector 86 TaxiNetwork.node[80] visitedPerTimestep ETV
vector 87 TaxiNetwork.node[124] visitedPerTimestep ETV
vector 88 TaxiNetwork.node[95] visitedPerTimestep ETV
vector 89 TaxiNetwork.node[69] visitedPerTimestep ETV
vector 90 TaxiNetwork.node[131] visitedPerTimestep ETV
vector 91 TaxiNetwork.node[74] visitedPerTimestep ETV
vector 92 TaxiNetwork.node[97] visitedPerTimestep ETV
vector 93 TaxiNetwork.node[35] visitedPerTimestep ETV
vector 94 TaxiNetwork.node[66] visitedPerTimestep ETV
vector 95 TaxiNetwork.node[62] visitedPerTimestep ETV
vector 96 TaxiNetwork.node[143] visitedPerTimestep ETV
vector 97 TaxiNetwork.node[133] visitedPerTimestep ETV
vector 98 TaxiNetwork.node[126] visitedPerTimestep ETV
vector 99 TaxiNetwork.node[76] visitedPerTimestep ETV
vector 100 TaxiNetwork.node[77] visitedPerTimestep ETV
vector 101 TaxiNetwork.node[75] visitedPerTimestep ETV
vector 102 TaxiNetwork.node[68] visitedPerTimestep ETV
vector 103 TaxiNetwork.node[61] visitedPerTimestep ETV
vector 104 TaxiNetwork.node[132] visitedPerTimestep ETV
vector 105 TaxiNetwork.node[37] visitedPerTimestep ETV
vector 106 TaxiNetwork.node[113] visitedPerTimestep ETV
vector 107 TaxiNetwork.node[117] visitedPerTimestep ETV
vector 108 TaxiNetwork.node[67] visitedPerTimestep ETV
vector 109 TaxiNetwork.node[121] visitedPerTimestep ETV
vector 110 TaxiNetwork.node[73] visitedPerTimestep ETV
vector 111 TaxiNetwork.node[99] visitedPerTimestep ETV
vector 112 TaxiNetwork.node[28] visitedPerTimestep ETV
vector 113 TaxiNetwork.node[23] visitedPerTimestep ETV
vector 114 TaxiNetwork.node[22] visitedPerTimestep ETV
vector 115 TaxiNetwork.node[24] visitedPerTimestep ETV
vector 116 TaxiNetwork.node[25] visitedPerTimestep ETV
vector 117 TaxiNetwork.node[41] visitedPerTimestep ETV
vector 118 TaxiNetwork.node[43] visitedPerTimestep ETV
vector 119 TaxiNetwork.node[38] visitedPerTimestep ETV
vector 120 TaxiNetwork.node[51] visitedPerTimestep ETV
vector 121 TaxiNetwork.node[50] visitedPerTimestep ETV
vector 122 TaxiNetwork.node[47] visitedPerTimestep ETV
vector 123 TaxiNetwork.node[144] visitedPerTimestep ETV
vector 124 TaxiNetwork.node[49] visitedPerTimestep ETV
vector 125 TaxiNetwork.node[48] visitedPerTimestep ETV
vector 126 TaxiNetwork.node[136] visitedPerTimestep ETV
vector 127 TaxiNetwork.node[79] visitedPerTimestep ETV
vector 128 TaxiNetwork.node[70] visitedPerTimestep ETV
vector 129 TaxiNetwork.node[72] visitedPerTimestep ETV
vector 130 TaxiNetwork.node[64] visitedPerTimestep ETV
vector 131 TaxiNetwork.node[108] visitedPerTimestep ETV
vector 132 TaxiNetwork.node[109] visitedPerTimestep ETV
vector 133 TaxiNetwork.node[127] visitedPerTimestep ETV
vector 134 TaxiNetwork.node[78] visitedPerTimestep ETV
vector 135 TaxiNetwork.node[107] visitedPerTimestep ETV
vector 136 TaxiNetwork.node[81] visitedPerTimestep ETV
vector 137 TaxiNetwork.node[125] visitedPerTimestep ETV
vector 138 TaxiNetwork.node[59] visitedPerTimestep ETV
vector 139 TaxiNetwork.node[135] visitedPerTimestep ETV
vector 140 TaxiNetwork.node[98] visitedPerTimestep ETV
vector 141 TaxiNetwork.node[65] visitedPerTimestep ETV
vector 142 TaxiNetwork.node[42] visitedPerTimestep ETV
vector 143 TaxiNetwork.node[71] visitedPerTimestep ETV
0	16920 376 1 9208 0 0 31 1 144 3689 493397
1	17296 479 2 9320 0 0 38 2 144 5021 694411
2	17775 368 3 9536 0 0 30 3 144 3684 494048
3	18143 518 4 9720 0 0 41 4 144 5439 754135
4	18661 630 5 9232 0 0 50 5 144 6715 930641
5	19291 562 6 8480 0 0 45 6 144 5875 800045
6	19853 583 7 9760 0 0 46 7 144 6205 866277
7	20436 582 8 9600 0 0 47 8 144 5955 805127
8	21018 509 9 8512 0 0 41 9 144 5193 709573
9	21527 595 11 9000 0 0 48 10 144 6000 801488
10	22122 678 12 9496 0 0 50 11 144 6558 901380
11	22800 682 13 9576 0 0 51 12 144 6362 855270
12	23482 697 14 9072 0 0 51 13 144 6808 938008
13	24179 430 15 9400 0 0 32 14 144 4018 546054
14	24609 594 16 9216 0 0 44 15 144 5726 776744
15	25203 378 17 8432 0 0 28 16 144 3572 487680
16	25581 558 18 9736 0 0 41 17 144 5453 747571
17	26139 609 19 9800 0 0 45 18 144 5856 790822
18	26748 578 20 9704 0 0 43 19 144 5477 732043
19	27326 486 21 9224 0 0 36 20 144 4663 629105
20	27812 137 23 8128 0 0 10 21 144 1298 181698
21	27949 383 24 8920 0 0 28 22 144 3733 515747
22	28332 523 27 9728 0 0 39 23 144 4960 666332
23	28855 215 28 8592 0 0 16 24 144 2083 285181
24	29070 303 29 6488 0 0 22 25 144 2970 415070
25	29373 499 30 9648 0 0 37 26 144 4821 655687
26	29872 491 31 9784 0 0 36 27 144 4721 650767
27	30363 656 33 9640 0 0 48 28 144 6422 883196
28	31019 311 37 8376 0 0 23 29 144 2982 402962
29	31330 540 38 8968 0 0 40 30 144 5114 693410
30	31870 654 39 9592 0 0 48 31 144 6421 885519
31	32524 578 40 8808 0 0 43 32 144 5509 737237
32	33102 377 41 9368 0 0 28 33 144 3582 484106
33	33479 476 43 9456 0 0 35 34 144 4596 630134
34	33955 571 44 9560 0 0 42 35 144 5523 759141
35	34526 364 45 9048 0 0 27 36 144 3567 486953
36	34890 208 46 6564 0 0 16 37 144 1841 234689
37	35098 295 47 8000 0 0 22 38 144 2813 376589
38	35393 256 48 6192 0 0 19 39 144 2468 334472
39	35649 186 49 6832 0 0 14 40 144 1711 222183
40	35835 374 50 9064 0 0 28 41 144 3508 462020
41	36209 621 51 9016 0 0 46 42 144 5988 815738
42	36830 430 52 9376 0 0 32 43 144 4164 566494
43	37260 337 58 9768 0 0 25 44 144 3220 434618
44	37597 351 59 9040 0 0 26 45 144 3429 464471
45	37948 506 63 9512 0 0 37 46 144 4970 686916
46	38454 606 73 9280 0 0 45 47 144 5894 797670
47	39060 508 75 9528 0 0 38 48 144 4789 637323
48	39568 355 77 9472 0 0 26 49 144 3453 473313
49	39923 575 81 9504 0 0 42 50 144 5725 793059
50	40498 612 82 9832 0 0 45 51 145 6015 820561
51	41110 600 83 9776 0 0 44 52 144 6006 831570
52	41710 376 85 5956 0 0 28 53 144 3609 480021
53	42086 471 87 8520 0 0 35 54 144 4628 630450
54	42557 459 89 8688 0 0 34 55 144 4420 597394
55	43016 627 90 9712 0 0 46 56 144 6103 832085
56	43643 561 95 9792 0 0 41 57 144 5537 763885
57	44204 625 96 9448 0 0 46 58 144 6074 821720
58	44829 546 99 9656 0 0 40 59 144 5400 744808
59	45375 426 101 9288 0 0 31 60 144 4208 585442
60	45801 205 116 7368 0 0 15 61 144 2002 275420
61	46006 204 117 8136 0 0 15 62 144 1942 262960
62	46210 313 118 9544 0 0 23 63 144 3038 413932
63	46523 179 120 7912 0 0 13 64 144 1729 236259
64	46702 248 121 9424 0 0 18 65 144 2439 338341
65	46950 399 122 9616 0 0 29 66 144 3915 539033
66	47349 465 126 9816 0 0 34 67 144 4637 639993
67	47814 401 132 9344 0 0 29 68 144 4021 563309
68	48215 173 133 8096 0 0 13 69 144 1599 206929
69	48388 260 149 6912 0 0 19 70 144 2566 352530
70	48648 532 168 9664 0 0 39 71 144 5245 717027
71	49180 342 170 9608 0 0 25 72 144 3411 471311
72	49522 268 174 7520 0 0 20 73 144 2525 328601
73	49790 595 176 9824 0 0 44 74 144 5793 780279
74	50385 491 177 9744 0 0 36 75 144 4812 656776
75	50876 650 179 9696 0 0 48 76 144 6377 863919
76	51526 246 188 8584 0 0 18 77 144 2400 325380
77	51772 177 189 6440 0 0 13 78 144 1703 229069
78	51949 124 190 8576 0 0 9 79 144 1228 171270
79	52073 107 200 6608 0 0 8 80 144 1024 134824
80	52180 159 203 9056 0 0 12 81 144 1520 198644
81	52339 337 206 9032 0 0 25 82 144 3310 445284
82	52676 429 209 7648 0 0 32 83 144 4147 550349
83	53105 457 250 7856 0 0 33 84 144 4589 642935
84	53562 221 257 6496 0 0 16 85 144 2221 311599
85	53783 204 258 6448 0 0 15 86 144 1982 265946
86	53987 119 269 4636 0 0 9 87 144 1082 134766
87	54106 108 270 4708 0 0 8 88 144 1057 142203
88	54214 54 271 4632 0 0 4 89 144 521 70129
89	54268 228 273 5900 0 0 17 90 144 2221 294761
90	54496 248 274 8936 0 0 18 91 144 2460 339978
91	54744 176 300 6900 0 0 13 92 144 1742 237748
92	54920 40 301 6896 0 0 3 93 144 381 50121
93	54960 270 304 8736 0 0 20 94 144 2691 365141
94	55230 164 314 4688 0 0 12 95 144 1610 218872
95	55394 271 315 6484 0 0 20 96 144 2678 363042
96	55665 162 316 6508 0 0 12 97 144 1573 210469
97	55827 232 321 4692 0 0 17 98 144 2290 312464
98	56059 191 323 6464 0 0 14 99 144 1895 259573
99	56250 110 324 6500 0 0 8 100 144 1064 144330
100	56360 220 325 6504 0 0 15 101 144 2051 282273
101	56580 177 330 5088 0 0 12 102 144 1640 226510
102	56757 371 333 6524 0 0 25 103 144 3454 480628
103	57128 262 334 6516 0 0 18 104 144 2426 329252
104	57390 293 335 6372 0 0 20 105 144 2660 357422
105	57683 276 357 9024 0 0 19 106 144 2572 350334
106	57959 222 387 9152 0 0 15 107 144 2065 286473
107	58181 370 398 7920 0 0 25 108 144 3476 484744
108	58551 250 422 8384 0 0 17 109 144 2366 330558
109	58801 236 423 4672 0 0 16 110 144 2191 301939
110	59037 103 432 4420 0 0 7 111 144 957 131765
111	59140 281 435 6492 0 0 19 112 144 2628 364858
112	59421 129 444 2934 0 0 9 113 143 1158 150314
113	59550 28 445 797 0 0 2 114 133 247 30685
114	59578 161 454 9392 0 0 11 115 144 1491 203385
115	59739 116 474 9384 0 0 8 116 144 1084 147518
116	59855 56 476 798 0 0 4 117 133 503 63467
117	59911 57 477 3264 0 0 4 118 144 514 66510
118	59968 14 478 478 0 0 1 119 119 119 14161
119	59982 29 480 3252 0 0 2 120 144 264 35136
120	60011 164 485 5804 0 0 11 121 144 1553 219713
121	60175 89 486 5800 0 0 6 122 144 838 117418
122	60264 148 487 3576 0 0 10 123 144 1397 195781
123	60412 148 488 6620 0 0 10 124 144 1396 195392
124	60560 74 489 3572 0 0 5 125 144 698 97708
125	60634 89 491 3580 0 0 6 126 144 842 118410
126	60723 119 492 3564 0 0 8 127 144 1130 159848
127	60842 148 565 6472 0 0 10 128 144 1404 197436
128	60990 221 578 6520 0 0 15 129 144 2088 291120
129	61211 132 594 4668 0 0 9 130 144 1240 171132
130	61343 164 599 4656 0 0 11 131 144 1555 220013
131	61507 58 791 3268 0 0 4 132 144 552 76320
132	61565 29 794 3260 0 0 2 133 144 277 38425
133	61594 149 844 6436 0 0 10 134 144 1408 198398
134	61743 58 919 2550 0 0 4 135 143 553 76499
135	61801 90 1230 6428 0 0 6 137 144 851 120757
136	61891 90 1232 6432 0 0 6 138 144 857 122437
137	61981 90 1236 6420 0 0 6 139 144 858 122714
138	62071 90 1448 8544 0 0 6 141 144 856 122130
139	62161 75 2064 5796 0 0 5 143 144 718 103106
140	62236 105 2066 7064 0 0 7 143 144 1003 143717
141	62341 45 2472 6512 0 0 3 143 144 430 61634
142	62386 15 3256 3256 0 0 1 144 144 144 20736
143	62401 30 4284 4368 0 0 2 144 144 288 41472

