file 52478 1756984394                                           
version 3
run General-92-20250904-14:13:14-15351
attr configname General
attr datetime 20250904-14:13:14
attr datetimef 20250904-141314
attr experiment General
attr inifile omnetpp.ini
attr iterationvars ""
attr iterationvarsd ""
attr iterationvarsf ""
attr measurement ""
attr network TaxiNetwork
attr processid 15351
attr repetition 92
attr replication #92
attr resultdir results
attr runnumber 92
attr seedset 92
config network TaxiNetwork
config seed-set 92
config num-rngs 1
config sim-time-limit 10s
config repeat 500
config *.numWalkers 1
config *.enableDuplication true
config *.rc 700
config **.node[0].xCor 2933
config **.node[0].yCor 2747
config **.node[1].xCor 2919
config **.node[1].yCor 2817
config **.node[2].xCor 2910
config **.node[2].yCor 2861
config **.node[3].xCor 2429
config **.node[3].yCor 2851
config **.node[4].xCor 2908
config **.node[4].yCor 2714
config **.node[5].xCor 2606
config **.node[5].yCor 2722
config **.node[6].xCor 2575
config **.node[6].yCor 2753
config **.node[7].xCor 2654
config **.node[7].yCor 2513
config **.node[8].xCor 2773
config **.node[8].yCor 2580
config **.node[9].xCor 3043
config **.node[9].yCor 2780
config **.node[10].xCor 3020
config **.node[10].yCor 2813
config **.node[11].xCor 2599
config **.node[11].yCor 2300
config **.node[12].xCor 2917
config **.node[12].yCor 2698
config **.node[13].xCor 2625
config **.node[13].yCor 2641
config **.node[14].xCor 2604
config **.node[14].yCor 2790
config **.node[15].xCor 2786
config **.node[15].yCor 3082
config **.node[16].xCor 2603
config **.node[16].yCor 2802
config **.node[17].xCor 2637
config **.node[17].yCor 2869
config **.node[18].xCor 2675
config **.node[18].yCor 2955
config **.node[19].xCor 2845
config **.node[19].yCor 2937
config **.node[20].xCor 2860
config **.node[20].yCor 2888
config **.node[21].xCor 2843
config **.node[21].yCor 4158
config **.node[22].xCor 2852
config **.node[22].yCor 4017
config **.node[23].xCor 2892
config **.node[23].yCor 4961
config **.node[24].xCor 2313
config **.node[24].yCor 3993
config **.node[25].xCor 2891
config **.node[25].yCor 4959
config **.node[26].xCor 2370
config **.node[26].yCor 4050
config **.node[27].xCor 2788
config **.node[27].yCor 3958
config **.node[28].xCor 2819
config **.node[28].yCor 4428
config **.node[29].xCor 2790
config **.node[29].yCor 3761
config **.node[30].xCor 2809
config **.node[30].yCor 2908
config **.node[31].xCor 2919
config **.node[31].yCor 3575
config **.node[32].xCor 2946
config **.node[32].yCor 3466
config **.node[33].xCor 2911
config **.node[33].yCor 3453
config **.node[34].xCor 2370
config **.node[34].yCor 3656
config **.node[35].xCor 2438
config **.node[35].yCor 3738
config **.node[36].xCor 2737
config **.node[36].yCor 3570
config **.node[37].xCor 2921
config **.node[37].yCor 3698
config **.node[38].xCor 2907
config **.node[38].yCor 5197
config **.node[39].xCor 2860
config **.node[39].yCor 3852
config **.node[40].xCor 2927
config **.node[40].yCor 3684
config **.node[41].xCor 3023
config **.node[41].yCor 5313
config **.node[42].xCor 3220
config **.node[42].yCor 5811
config **.node[43].xCor 3432
config **.node[43].yCor 5715
config **.node[44].xCor 2754
config **.node[44].yCor 2463
config **.node[45].xCor 2646
config **.node[45].yCor 2673
config **.node[46].xCor 3051
config **.node[46].yCor 2792
config **.node[47].xCor 1666
config **.node[47].yCor 3697
config **.node[48].xCor 1662
config **.node[48].yCor 3694
config **.node[49].xCor 1664
config **.node[49].yCor 3667
config **.node[50].xCor 1660
config **.node[50].yCor 3664
config **.node[51].xCor 1710
config **.node[51].yCor 3573
config **.node[52].xCor 2082
config **.node[52].yCor 2650
config **.node[53].xCor 2086
config **.node[53].yCor 2657
config **.node[54].xCor 2257
config **.node[54].yCor 3232
config **.node[55].xCor 2258
config **.node[55].yCor 3225
config **.node[56].xCor 1926
config **.node[56].yCor 2570
config **.node[57].xCor 1926
config **.node[57].yCor 2576
config **.node[58].xCor 2104
config **.node[58].yCor 1758
config **.node[59].xCor 1957
config **.node[59].yCor 1826
config **.node[60].xCor 3473
config **.node[60].yCor 1523
config **.node[61].xCor 3335
config **.node[61].yCor 1726
config **.node[62].xCor 3478
config **.node[62].yCor 1517
config **.node[63].xCor 3386
config **.node[63].yCor 2119
config **.node[64].xCor 3474
config **.node[64].yCor 1762
config **.node[65].xCor 3797
config **.node[65].yCor 2099
config **.node[66].xCor 3642
config **.node[66].yCor 2136
config **.node[67].xCor 3481
config **.node[67].yCor 2334
config **.node[68].xCor 3088
config **.node[68].yCor 1505
config **.node[69].xCor 3037
config **.node[69].yCor 1693
config **.node[70].xCor 3026
config **.node[70].yCor 1700
config **.node[71].xCor 3019
config **.node[71].yCor 669
config **.node[72].xCor 3513
config **.node[72].yCor 1358
config **.node[73].xCor 3545
config **.node[73].yCor 1230
config **.node[74].xCor 4228
config **.node[74].yCor 4220
config **.node[75].xCor 3379
config **.node[75].yCor 1207
config **.node[76].xCor 3596
config **.node[76].yCor 963
config **.node[77].xCor 3637
config **.node[77].yCor 1188
config **.node[78].xCor 3759
config **.node[78].yCor 1030
config **.node[79].xCor 2918
config **.node[79].yCor 1455
config **.node[80].xCor 2711
config **.node[80].yCor 1297
config **.node[81].xCor 439
config **.node[81].yCor 1623
config **.node[82].xCor 2857
config **.node[82].yCor 3581
config **.node[83].xCor 2858
config **.node[83].yCor 3584
config **.node[84].xCor 2999
config **.node[84].yCor 2636
config **.node[85].xCor 2905
config **.node[85].yCor 2778
config **.node[86].xCor 2653
config **.node[86].yCor 2845
config **.node[87].xCor 2864
config **.node[87].yCor 2836
config **.node[88].xCor 2426
config **.node[88].yCor 2892
config **.node[89].xCor 2964
config **.node[89].yCor 2804
config **.node[90].xCor 2586
config **.node[90].yCor 3135
config **.node[91].xCor 2864
config **.node[91].yCor 2980
config **.node[92].xCor 2527
config **.node[92].yCor 3219
config **.node[93].xCor 2863
config **.node[93].yCor 3142
config **.node[94].xCor 2485
config **.node[94].yCor 3269
config **.node[95].xCor 2653
config **.node[95].yCor 1065
config **.node[96].xCor 4062
config **.node[96].yCor 400
config **.node[97].xCor 5762
config **.node[97].yCor 3023
config **.node[98].xCor 1414
config **.node[98].yCor 3461
config **.node[99].xCor 2911
config **.node[99].yCor 1737
config **.node[100].xCor 2595
config **.node[100].yCor 2299
config **.node[101].xCor 2702
config **.node[101].yCor 3419
config **.node[102].xCor 2813
config **.node[102].yCor 3307
config **.node[103].xCor 2638
config **.node[103].yCor 2258
config **.node[104].xCor 2590
config **.node[104].yCor 3125
config **.node[105].xCor 1856
config **.node[105].yCor 2990
config **.node[106].xCor 1894
config **.node[106].yCor 2239
config **.node[107].xCor 383
config **.node[107].yCor 1251
config **.node[108].xCor 3447
config **.node[108].yCor 5489
config **.node[109].xCor 3450
config **.node[109].yCor 5697
config **.node[110].xCor 2719
config **.node[110].yCor 1920
config **.node[111].xCor 2085
config **.node[111].yCor 2389
config **.node[112].xCor 1910
config **.node[112].yCor 2548
config **.node[113].xCor 2069
config **.node[113].yCor 2050
config **.node[114].xCor 2184
config **.node[114].yCor 2209
config **.node[115].xCor 2278
config **.node[115].yCor 2390
config **.node[116].xCor 2249
config **.node[116].yCor 2299
config **.node[117].xCor 2356
config **.node[117].yCor 2303
config **.node[118].xCor 2192
config **.node[118].yCor 2475
config **.node[119].xCor 1720
config **.node[119].yCor 2911
config **.node[120].xCor 2400
config **.node[120].yCor 2887
config **.node[121].xCor 3344
config **.node[121].yCor 1890
config **.node[122].xCor 3136
config **.node[122].yCor 2418
config **.node[123].xCor 3243
config **.node[123].yCor 2525
config **.node[124].xCor 2396
config **.node[124].yCor 1267
config **.node[125].xCor 467
config **.node[125].yCor 1875
config **.node[126].xCor 3506
config **.node[126].yCor 1221
config **.node[127].xCor 1034
config **.node[127].yCor 1474
config **.node[128].xCor 2908
config **.node[128].yCor 1784
config **.node[129].xCor 2876
config **.node[129].yCor 1761
config **.node[130].xCor 2849
config **.node[130].yCor 1795
config **.node[131].xCor 3029
config **.node[131].yCor 1859
config **.node[132].xCor 2924
config **.node[132].yCor 1848
config **.node[133].xCor 3493
config **.node[133].yCor 1559
config **.node[134].xCor 2760
config **.node[134].yCor 1761
config **.node[135].xCor 1644
config **.node[135].yCor 3755
config **.node[136].xCor 1463
config **.node[136].yCor 3432
config **.node[137].xCor 2595
config **.node[137].yCor 2849
config **.node[138].xCor 2581
config **.node[138].yCor 2867
config **.node[139].xCor 2524
config **.node[139].yCor 2911
config **.node[140].xCor 2570
config **.node[140].yCor 2924
config **.node[141].xCor 2676
config **.node[141].yCor 2890
config **.node[142].xCor 2666
config **.node[142].yCor 2876
config **.node[143].xCor 3735
config **.node[143].yCor 1726
config **.node[144].xCor 1637
config **.node[144].yCor 3438

vector 0 TaxiNetwork.node[116] visitedPerTimestep ETV
vector 1 TaxiNetwork.node[7] visitedPerTimestep ETV
vector 2 TaxiNetwork.node[19] visitedPerTimestep ETV
vector 3 TaxiNetwork.node[11] visitedPerTimestep ETV
vector 4 TaxiNetwork.node[6] visitedPerTimestep ETV
vector 5 TaxiNetwork.node[16] visitedPerTimestep ETV
vector 6 TaxiNetwork.node[84] visitedPerTimestep ETV
vector 7 TaxiNetwork.node[14] visitedPerTimestep ETV
vector 8 TaxiNetwork.node[89] visitedPerTimestep ETV
vector 9 TaxiNetwork.node[20] visitedPerTimestep ETV
vector 10 TaxiNetwork.node[85] visitedPerTimestep ETV
vector 11 TaxiNetwork.node[0] visitedPerTimestep ETV
vector 12 TaxiNetwork.node[93] visitedPerTimestep ETV
vector 13 TaxiNetwork.node[142] visitedPerTimestep ETV
vector 14 TaxiNetwork.node[103] visitedPerTimestep ETV
vector 15 TaxiNetwork.node[132] visitedPerTimestep ETV
vector 16 TaxiNetwork.node[60] visitedPerTimestep ETV
vector 17 TaxiNetwork.node[75] visitedPerTimestep ETV
vector 18 TaxiNetwork.node[79] visitedPerTimestep ETV
vector 19 TaxiNetwork.node[124] visitedPerTimestep ETV
vector 20 TaxiNetwork.node[99] visitedPerTimestep ETV
vector 21 TaxiNetwork.node[129] visitedPerTimestep ETV
vector 22 TaxiNetwork.node[63] visitedPerTimestep ETV
vector 23 TaxiNetwork.node[61] visitedPerTimestep ETV
vector 24 TaxiNetwork.node[62] visitedPerTimestep ETV
vector 25 TaxiNetwork.node[121] visitedPerTimestep ETV
vector 26 TaxiNetwork.node[69] visitedPerTimestep ETV
vector 27 TaxiNetwork.node[131] visitedPerTimestep ETV
vector 28 TaxiNetwork.node[80] visitedPerTimestep ETV
vector 29 TaxiNetwork.node[133] visitedPerTimestep ETV
vector 30 TaxiNetwork.node[18] visitedPerTimestep ETV
vector 31 TaxiNetwork.node[30] visitedPerTimestep ETV
vector 32 TaxiNetwork.node[83] visitedPerTimestep ETV
vector 33 TaxiNetwork.node[55] visitedPerTimestep ETV
vector 34 TaxiNetwork.node[33] visitedPerTimestep ETV
vector 35 TaxiNetwork.node[35] visitedPerTimestep ETV
vector 36 TaxiNetwork.node[39] visitedPerTimestep ETV
vector 37 TaxiNetwork.node[24] visitedPerTimestep ETV
vector 38 TaxiNetwork.node[29] visitedPerTimestep ETV
vector 39 TaxiNetwork.node[21] visitedPerTimestep ETV
vector 40 TaxiNetwork.node[37] visitedPerTimestep ETV
vector 41 TaxiNetwork.node[82] visitedPerTimestep ETV
vector 42 TaxiNetwork.node[31] visitedPerTimestep ETV
vector 43 TaxiNetwork.node[101] visitedPerTimestep ETV
vector 44 TaxiNetwork.node[10] visitedPerTimestep ETV
vector 45 TaxiNetwork.node[86] visitedPerTimestep ETV
vector 46 TaxiNetwork.node[54] visitedPerTimestep ETV
vector 47 TaxiNetwork.node[92] visitedPerTimestep ETV
vector 48 TaxiNetwork.node[1] visitedPerTimestep ETV
vector 49 TaxiNetwork.node[139] visitedPerTimestep ETV
vector 50 TaxiNetwork.node[9] visitedPerTimestep ETV
vector 51 TaxiNetwork.node[67] visitedPerTimestep ETV
vector 52 TaxiNetwork.node[118] visitedPerTimestep ETV
vector 53 TaxiNetwork.node[57] visitedPerTimestep ETV
vector 54 TaxiNetwork.node[3] visitedPerTimestep ETV
vector 55 TaxiNetwork.node[45] visitedPerTimestep ETV
vector 56 TaxiNetwork.node[137] visitedPerTimestep ETV
vector 57 TaxiNetwork.node[115] visitedPerTimestep ETV
vector 58 TaxiNetwork.node[100] visitedPerTimestep ETV
vector 59 TaxiNetwork.node[114] visitedPerTimestep ETV
vector 60 TaxiNetwork.node[5] visitedPerTimestep ETV
vector 61 TaxiNetwork.node[17] visitedPerTimestep ETV
vector 62 TaxiNetwork.node[122] visitedPerTimestep ETV
vector 63 TaxiNetwork.node[73] visitedPerTimestep ETV
vector 64 TaxiNetwork.node[78] visitedPerTimestep ETV
vector 65 TaxiNetwork.node[72] visitedPerTimestep ETV
vector 66 TaxiNetwork.node[64] visitedPerTimestep ETV
vector 67 TaxiNetwork.node[143] visitedPerTimestep ETV
vector 68 TaxiNetwork.node[77] visitedPerTimestep ETV
vector 69 TaxiNetwork.node[128] visitedPerTimestep ETV
vector 70 TaxiNetwork.node[130] visitedPerTimestep ETV
vector 71 TaxiNetwork.node[46] visitedPerTimestep ETV
vector 72 TaxiNetwork.node[4] visitedPerTimestep ETV
vector 73 TaxiNetwork.node[102] visitedPerTimestep ETV
vector 74 TaxiNetwork.node[141] visitedPerTimestep ETV
vector 75 TaxiNetwork.node[120] visitedPerTimestep ETV
vector 76 TaxiNetwork.node[8] visitedPerTimestep ETV
vector 77 TaxiNetwork.node[36] visitedPerTimestep ETV
vector 78 TaxiNetwork.node[22] visitedPerTimestep ETV
vector 79 TaxiNetwork.node[32] visitedPerTimestep ETV
vector 80 TaxiNetwork.node[140] visitedPerTimestep ETV
vector 81 TaxiNetwork.node[88] visitedPerTimestep ETV
vector 82 TaxiNetwork.node[104] visitedPerTimestep ETV
vector 83 TaxiNetwork.node[87] visitedPerTimestep ETV
vector 84 TaxiNetwork.node[13] visitedPerTimestep ETV
vector 85 TaxiNetwork.node[2] visitedPerTimestep ETV
vector 86 TaxiNetwork.node[12] visitedPerTimestep ETV
vector 87 TaxiNetwork.node[44] visitedPerTimestep ETV
vector 88 TaxiNetwork.node[53] visitedPerTimestep ETV
vector 89 TaxiNetwork.node[117] visitedPerTimestep ETV
vector 90 TaxiNetwork.node[28] visitedPerTimestep ETV
vector 91 TaxiNetwork.node[26] visitedPerTimestep ETV
vector 92 TaxiNetwork.node[34] visitedPerTimestep ETV
vector 93 TaxiNetwork.node[40] visitedPerTimestep ETV
vector 94 TaxiNetwork.node[138] visitedPerTimestep ETV
vector 95 TaxiNetwork.node[52] visitedPerTimestep ETV
vector 96 TaxiNetwork.node[90] visitedPerTimestep ETV
vector 97 TaxiNetwork.node[94] visitedPerTimestep ETV
vector 98 TaxiNetwork.node[123] visitedPerTimestep ETV
vector 99 TaxiNetwork.node[91] visitedPerTimestep ETV
vector 100 TaxiNetwork.node[27] visitedPerTimestep ETV
vector 101 TaxiNetwork.node[15] visitedPerTimestep ETV
vector 102 TaxiNetwork.node[110] visitedPerTimestep ETV
vector 103 TaxiNetwork.node[68] visitedPerTimestep ETV
vector 104 TaxiNetwork.node[95] visitedPerTimestep ETV
vector 105 TaxiNetwork.node[71] visitedPerTimestep ETV
vector 106 TaxiNetwork.node[134] visitedPerTimestep ETV
vector 107 TaxiNetwork.node[70] visitedPerTimestep ETV
vector 108 TaxiNetwork.node[106] visitedPerTimestep ETV
vector 109 TaxiNetwork.node[113] visitedPerTimestep ETV
vector 110 TaxiNetwork.node[74] visitedPerTimestep ETV
vector 111 TaxiNetwork.node[111] visitedPerTimestep ETV
vector 112 TaxiNetwork.node[59] visitedPerTimestep ETV
vector 113 TaxiNetwork.node[109] visitedPerTimestep ETV
vector 114 TaxiNetwork.node[108] visitedPerTimestep ETV
vector 115 TaxiNetwork.node[42] visitedPerTimestep ETV
vector 116 TaxiNetwork.node[43] visitedPerTimestep ETV
vector 117 TaxiNetwork.node[41] visitedPerTimestep ETV
vector 118 TaxiNetwork.node[126] visitedPerTimestep ETV
vector 119 TaxiNetwork.node[66] visitedPerTimestep ETV
vector 120 TaxiNetwork.node[65] visitedPerTimestep ETV
vector 121 TaxiNetwork.node[105] visitedPerTimestep ETV
vector 122 TaxiNetwork.node[98] visitedPerTimestep ETV
vector 123 TaxiNetwork.node[51] visitedPerTimestep ETV
vector 124 TaxiNetwork.node[47] visitedPerTimestep ETV
vector 125 TaxiNetwork.node[135] visitedPerTimestep ETV
vector 126 TaxiNetwork.node[144] visitedPerTimestep ETV
vector 127 TaxiNetwork.node[112] visitedPerTimestep ETV
vector 128 TaxiNetwork.node[119] visitedPerTimestep ETV
vector 129 TaxiNetwork.node[56] visitedPerTimestep ETV
vector 130 TaxiNetwork.node[136] visitedPerTimestep ETV
vector 131 TaxiNetwork.node[49] visitedPerTimestep ETV
vector 132 TaxiNetwork.node[48] visitedPerTimestep ETV
vector 133 TaxiNetwork.node[58] visitedPerTimestep ETV
vector 134 TaxiNetwork.node[127] visitedPerTimestep ETV
vector 135 TaxiNetwork.node[125] visitedPerTimestep ETV
vector 136 TaxiNetwork.node[81] visitedPerTimestep ETV
vector 137 TaxiNetwork.node[107] visitedPerTimestep ETV
vector 138 TaxiNetwork.node[76] visitedPerTimestep ETV
vector 139 TaxiNetwork.node[50] visitedPerTimestep ETV
vector 140 TaxiNetwork.node[97] visitedPerTimestep ETV
0	16749 258 1 4468 0 0 21 1 144 2572 336374
1	17007 566 2 5552 0 0 45 2 144 5857 800935
2	17573 442 3 4980 0 0 36 3 144 4397 570213
3	18015 409 4 5612 0 0 33 4 144 4227 563865
4	18424 398 5 4400 0 0 32 5 144 4037 539023
5	18822 407 6 5008 0 0 33 6 144 4145 542047
6	19229 385 7 4612 0 0 31 7 144 3850 519654
7	19614 430 8 4568 0 0 35 8 144 4296 556680
8	20044 398 9 4716 0 0 32 9 144 4079 549195
9	20442 376 10 5464 0 0 30 10 144 3827 514569
10	20818 528 12 5456 0 0 39 11 144 5082 687952
11	21346 465 13 3692 0 0 35 12 144 4253 548507
12	21811 468 14 4616 0 0 35 13 144 4359 565445
13	22279 498 15 4576 0 0 37 14 144 4656 612080
14	22777 527 16 5556 0 0 39 15 144 5024 676620
15	23304 159 17 5104 0 0 12 16 144 1387 176763
16	23463 240 18 5340 0 0 18 17 144 2202 287724
17	23703 131 19 5324 0 0 10 18 144 1188 154506
18	23834 234 20 5412 0 0 18 19 144 1866 243374
19	24068 92 21 5380 0 0 7 20 144 761 102649
20	24160 274 23 5440 0 0 21 21 144 2364 301552
21	24434 188 24 5368 0 0 14 22 144 1749 232291
22	24622 144 25 5424 0 0 11 23 144 1252 159464
23	24766 159 26 5568 0 0 12 24 144 1435 187697
24	24925 212 27 5284 0 0 16 25 144 1892 243166
25	25137 173 29 5408 0 0 13 26 144 1606 215088
26	25310 215 30 5416 0 0 16 27 144 1982 261690
27	25525 241 31 5200 0 0 18 28 144 2182 283828
28	25766 228 33 5376 0 0 17 29 144 2118 280024
29	25994 186 37 5328 0 0 14 30 144 1716 225082
30	26180 436 41 5032 0 0 32 31 144 4212 570764
31	26616 458 42 5180 0 0 34 32 144 4397 585045
32	27074 388 43 4440 0 0 29 33 144 3650 477352
33	27462 305 44 5592 0 0 23 34 144 2864 377096
34	27767 324 45 4584 0 0 24 35 144 3051 403565
35	28091 174 46 4088 0 0 13 36 144 1596 208854
36	28265 215 47 4320 0 0 16 37 144 1985 258427
37	28480 118 48 4264 0 0 9 38 144 1033 129763
38	28598 228 49 4288 0 0 17 39 144 2126 278332
39	28826 67 50 2952 0 0 5 40 144 593 78131
40	28893 183 51 4292 0 0 14 41 144 1598 195060
41	29076 163 52 5052 0 0 12 42 144 1558 211770
42	29239 216 53 5020 0 0 16 43 144 2018 266628
43	29455 433 55 5024 0 0 32 44 144 4135 549303
44	29888 458 56 5112 0 0 34 45 144 4333 567615
45	30346 366 57 5608 0 0 27 46 144 3533 474529
46	30712 312 58 5588 0 0 23 47 144 2963 395153
47	31024 404 59 5168 0 0 30 48 144 3834 505186
48	31428 499 60 5492 0 0 37 49 144 4698 616808
49	31927 454 61 4988 0 0 34 50 144 4264 547578
50	32381 500 62 4740 0 0 37 51 144 4811 644081
51	32881 105 66 3848 0 0 8 52 144 948 120640
52	32986 286 69 5504 0 0 21 53 144 2739 366419
53	33272 162 70 4456 0 0 12 54 144 1558 209786
54	33434 648 71 5500 0 0 48 55 144 6285 840265
55	34082 553 77 5596 0 0 41 56 144 5272 692292
56	34635 560 78 5164 0 0 42 57 144 5291 687421
57	35195 242 80 5476 0 0 18 58 144 2312 305048
58	35437 460 81 5508 0 0 34 59 144 4514 610512
59	35897 93 82 4784 0 0 7 60 144 845 107849
60	35990 373 83 5172 0 0 28 61 144 3439 433561
61	36363 516 85 5544 0 0 38 62 144 4979 665353
62	36879 282 91 5488 0 0 21 63 144 2623 338623
63	37161 190 93 5272 0 0 14 64 144 1825 247987
64	37351 119 94 5336 0 0 9 65 144 1105 144379
65	37470 104 95 4160 0 0 8 66 144 936 117312
66	37574 146 96 5392 0 0 11 67 144 1388 183930
67	37720 160 97 5396 0 0 12 68 144 1519 200949
68	37880 136 103 5400 0 0 10 69 144 1295 173547
69	38016 230 117 5576 0 0 17 70 144 2146 280364
70	38246 95 120 5360 0 0 7 71 144 906 121654
71	38341 392 123 5080 0 0 29 72 144 3737 493675
72	38733 380 126 5192 0 0 28 73 144 3659 485835
73	39113 610 127 5064 0 0 45 74 144 5827 769399
74	39723 402 128 5068 0 0 30 75 144 3781 486381
75	40125 436 129 4676 0 0 32 76 144 4231 568849
76	40561 396 134 5480 0 0 29 77 144 3825 512057
77	40957 228 138 5060 0 0 17 78 144 2166 283110
78	41185 134 139 3652 0 0 10 79 144 1221 155825
79	41319 394 142 4324 0 0 29 80 144 3758 495208
80	41713 459 147 5184 0 0 34 81 144 4397 578971
81	42172 415 150 5468 0 0 31 82 144 3931 508433
82	42587 527 154 4256 0 0 39 83 144 5066 670144
83	43114 424 155 5516 0 0 31 84 144 4143 561691
84	43538 463 156 4984 0 0 34 85 144 4496 603116
85	44001 297 158 4672 0 0 22 86 144 2848 375286
86	44298 343 159 4732 0 0 25 87 144 3343 452791
87	44641 369 161 5616 0 0 27 88 145 3606 487784
88	45010 273 168 5540 0 0 20 89 144 2677 363791
89	45283 256 170 4628 0 0 19 90 144 2456 322158
90	45539 54 178 1272 0 0 4 91 135 492 61884
91	45593 81 179 4100 0 0 6 92 144 767 99723
92	45674 175 184 4260 0 0 13 93 144 1653 214627
93	45849 164 190 4220 0 0 12 94 144 1584 211998
94	46013 295 217 5160 0 0 22 95 144 2817 367429
95	46308 354 223 5604 0 0 26 96 144 3469 468257
96	46662 393 240 4768 0 0 29 97 144 3792 503834
97	47055 503 249 4240 0 0 37 98 144 4841 640787
98	47558 327 253 5548 0 0 24 99 144 3180 425996
99	47885 621 256 5496 0 0 45 100 144 6108 835610
100	48506 89 286 4276 0 0 6 101 144 801 108287
101	48595 601 296 5520 0 0 41 102 144 5490 740442
102	49196 118 302 5432 0 0 8 103 144 1070 145262
103	49314 238 318 5436 0 0 16 104 144 2220 309906
104	49552 104 319 5348 0 0 7 105 144 965 134305
105	49656 42 320 945 0 0 3 106 133 372 46614
106	49698 282 322 5572 0 0 19 107 144 2619 362717
107	49980 192 330 5564 0 0 13 108 144 1786 246940
108	50172 72 360 1412 0 0 5 109 136 642 82932
109	50244 131 361 4460 0 0 9 110 144 1207 162791
110	50375 117 371 2880 0 0 8 111 143 1037 135693
111	50492 190 445 5472 0 0 13 112 144 1756 238628
112	50682 29 446 1406 0 0 2 113 136 249 31265
113	50711 56 538 551 0 0 4 114 118 468 54768
114	50767 56 539 553 0 0 4 115 118 469 54997
115	50823 42 540 552 0 0 3 116 118 352 41304
116	50865 42 541 549 0 0 3 117 118 353 41537
117	50907 28 542 548 0 0 2 118 118 236 27848
118	50935 220 587 5404 0 0 15 119 144 2052 282118
119	51155 103 602 4856 0 0 7 120 144 963 132925
120	51258 118 702 5308 0 0 8 121 144 1107 153619
121	51376 101 717 5532 0 0 7 122 144 943 127455
122	51477 44 718 2684 0 0 3 123 142 407 55457
123	51521 116 719 2694 0 0 8 124 142 1084 147286
124	51637 72 720 2686 0 0 5 125 142 675 91331
125	51709 44 721 2690 0 0 3 126 142 410 56204
126	51753 58 723 2594 0 0 4 127 142 541 73357
127	51811 74 745 2698 0 0 5 128 142 693 96193
128	51885 59 897 5536 0 0 4 129 144 556 77422
129	51944 134 899 4396 0 0 9 130 144 1269 179141
130	52078 86 903 2692 0 0 6 131 142 814 110556
131	52164 29 904 2590 0 0 2 132 142 274 37588
132	52193 74 905 2688 0 0 5 133 142 701 98345
133	52267 30 1404 4464 0 0 2 136 144 280 39232
134	52297 45 1544 1602 0 0 3 137 140 414 57138
135	52342 15 1596 1596 0 0 1 138 138 138 19044
136	52357 15 1598 1598 0 0 1 139 139 139 19321
137	52372 15 1600 1600 0 0 1 140 140 140 19600
138	52387 60 1910 5228 0 0 4 141 144 573 82089
139	52447 15 2582 2582 0 0 1 142 142 142 20164
140	52462 15 2878 2878 0 0 1 143 143 143 20449

