file 43403 1756984398                                           
version 3
run General-232-20250904-14:13:18-15585
attr configname General
attr datetime 20250904-14:13:18
attr datetimef 20250904-141318
attr experiment General
attr inifile omnetpp.ini
attr iterationvars ""
attr iterationvarsd ""
attr iterationvarsf ""
attr measurement ""
attr network TaxiNetwork
attr processid 15585
attr repetition 232
attr replication #232
attr resultdir results
attr runnumber 232
attr seedset 232
config network TaxiNetwork
config seed-set 232
config num-rngs 1
config sim-time-limit 10s
config repeat 500
config *.numWalkers 1
config *.enableDuplication true
config *.rc 700
config **.node[0].xCor 2933
config **.node[0].yCor 2747
config **.node[1].xCor 2919
config **.node[1].yCor 2817
config **.node[2].xCor 2910
config **.node[2].yCor 2861
config **.node[3].xCor 2429
config **.node[3].yCor 2851
config **.node[4].xCor 2908
config **.node[4].yCor 2714
config **.node[5].xCor 2606
config **.node[5].yCor 2722
config **.node[6].xCor 2575
config **.node[6].yCor 2753
config **.node[7].xCor 2654
config **.node[7].yCor 2513
config **.node[8].xCor 2773
config **.node[8].yCor 2580
config **.node[9].xCor 3043
config **.node[9].yCor 2780
config **.node[10].xCor 3020
config **.node[10].yCor 2813
config **.node[11].xCor 2599
config **.node[11].yCor 2300
config **.node[12].xCor 2917
config **.node[12].yCor 2698
config **.node[13].xCor 2625
config **.node[13].yCor 2641
config **.node[14].xCor 2604
config **.node[14].yCor 2790
config **.node[15].xCor 2786
config **.node[15].yCor 3082
config **.node[16].xCor 2603
config **.node[16].yCor 2802
config **.node[17].xCor 2637
config **.node[17].yCor 2869
config **.node[18].xCor 2675
config **.node[18].yCor 2955
config **.node[19].xCor 2845
config **.node[19].yCor 2937
config **.node[20].xCor 2860
config **.node[20].yCor 2888
config **.node[21].xCor 2843
config **.node[21].yCor 4158
config **.node[22].xCor 2852
config **.node[22].yCor 4017
config **.node[23].xCor 2892
config **.node[23].yCor 4961
config **.node[24].xCor 2313
config **.node[24].yCor 3993
config **.node[25].xCor 2891
config **.node[25].yCor 4959
config **.node[26].xCor 2370
config **.node[26].yCor 4050
config **.node[27].xCor 2788
config **.node[27].yCor 3958
config **.node[28].xCor 2819
config **.node[28].yCor 4428
config **.node[29].xCor 2790
config **.node[29].yCor 3761
config **.node[30].xCor 2809
config **.node[30].yCor 2908
config **.node[31].xCor 2919
config **.node[31].yCor 3575
config **.node[32].xCor 2946
config **.node[32].yCor 3466
config **.node[33].xCor 2911
config **.node[33].yCor 3453
config **.node[34].xCor 2370
config **.node[34].yCor 3656
config **.node[35].xCor 2438
config **.node[35].yCor 3738
config **.node[36].xCor 2737
config **.node[36].yCor 3570
config **.node[37].xCor 2921
config **.node[37].yCor 3698
config **.node[38].xCor 2907
config **.node[38].yCor 5197
config **.node[39].xCor 2860
config **.node[39].yCor 3852
config **.node[40].xCor 2927
config **.node[40].yCor 3684
config **.node[41].xCor 3023
config **.node[41].yCor 5313
config **.node[42].xCor 3220
config **.node[42].yCor 5811
config **.node[43].xCor 3432
config **.node[43].yCor 5715
config **.node[44].xCor 2754
config **.node[44].yCor 2463
config **.node[45].xCor 2646
config **.node[45].yCor 2673
config **.node[46].xCor 3051
config **.node[46].yCor 2792
config **.node[47].xCor 1666
config **.node[47].yCor 3697
config **.node[48].xCor 1662
config **.node[48].yCor 3694
config **.node[49].xCor 1664
config **.node[49].yCor 3667
config **.node[50].xCor 1660
config **.node[50].yCor 3664
config **.node[51].xCor 1710
config **.node[51].yCor 3573
config **.node[52].xCor 2082
config **.node[52].yCor 2650
config **.node[53].xCor 2086
config **.node[53].yCor 2657
config **.node[54].xCor 2257
config **.node[54].yCor 3232
config **.node[55].xCor 2258
config **.node[55].yCor 3225
config **.node[56].xCor 1926
config **.node[56].yCor 2570
config **.node[57].xCor 1926
config **.node[57].yCor 2576
config **.node[58].xCor 2104
config **.node[58].yCor 1758
config **.node[59].xCor 1957
config **.node[59].yCor 1826
config **.node[60].xCor 3473
config **.node[60].yCor 1523
config **.node[61].xCor 3335
config **.node[61].yCor 1726
config **.node[62].xCor 3478
config **.node[62].yCor 1517
config **.node[63].xCor 3386
config **.node[63].yCor 2119
config **.node[64].xCor 3474
config **.node[64].yCor 1762
config **.node[65].xCor 3797
config **.node[65].yCor 2099
config **.node[66].xCor 3642
config **.node[66].yCor 2136
config **.node[67].xCor 3481
config **.node[67].yCor 2334
config **.node[68].xCor 3088
config **.node[68].yCor 1505
config **.node[69].xCor 3037
config **.node[69].yCor 1693
config **.node[70].xCor 3026
config **.node[70].yCor 1700
config **.node[71].xCor 3019
config **.node[71].yCor 669
config **.node[72].xCor 3513
config **.node[72].yCor 1358
config **.node[73].xCor 3545
config **.node[73].yCor 1230
config **.node[74].xCor 4228
config **.node[74].yCor 4220
config **.node[75].xCor 3379
config **.node[75].yCor 1207
config **.node[76].xCor 3596
config **.node[76].yCor 963
config **.node[77].xCor 3637
config **.node[77].yCor 1188
config **.node[78].xCor 3759
config **.node[78].yCor 1030
config **.node[79].xCor 2918
config **.node[79].yCor 1455
config **.node[80].xCor 2711
config **.node[80].yCor 1297
config **.node[81].xCor 439
config **.node[81].yCor 1623
config **.node[82].xCor 2857
config **.node[82].yCor 3581
config **.node[83].xCor 2858
config **.node[83].yCor 3584
config **.node[84].xCor 2999
config **.node[84].yCor 2636
config **.node[85].xCor 2905
config **.node[85].yCor 2778
config **.node[86].xCor 2653
config **.node[86].yCor 2845
config **.node[87].xCor 2864
config **.node[87].yCor 2836
config **.node[88].xCor 2426
config **.node[88].yCor 2892
config **.node[89].xCor 2964
config **.node[89].yCor 2804
config **.node[90].xCor 2586
config **.node[90].yCor 3135
config **.node[91].xCor 2864
config **.node[91].yCor 2980
config **.node[92].xCor 2527
config **.node[92].yCor 3219
config **.node[93].xCor 2863
config **.node[93].yCor 3142
config **.node[94].xCor 2485
config **.node[94].yCor 3269
config **.node[95].xCor 2653
config **.node[95].yCor 1065
config **.node[96].xCor 4062
config **.node[96].yCor 400
config **.node[97].xCor 5762
config **.node[97].yCor 3023
config **.node[98].xCor 1414
config **.node[98].yCor 3461
config **.node[99].xCor 2911
config **.node[99].yCor 1737
config **.node[100].xCor 2595
config **.node[100].yCor 2299
config **.node[101].xCor 2702
config **.node[101].yCor 3419
config **.node[102].xCor 2813
config **.node[102].yCor 3307
config **.node[103].xCor 2638
config **.node[103].yCor 2258
config **.node[104].xCor 2590
config **.node[104].yCor 3125
config **.node[105].xCor 1856
config **.node[105].yCor 2990
config **.node[106].xCor 1894
config **.node[106].yCor 2239
config **.node[107].xCor 383
config **.node[107].yCor 1251
config **.node[108].xCor 3447
config **.node[108].yCor 5489
config **.node[109].xCor 3450
config **.node[109].yCor 5697
config **.node[110].xCor 2719
config **.node[110].yCor 1920
config **.node[111].xCor 2085
config **.node[111].yCor 2389
config **.node[112].xCor 1910
config **.node[112].yCor 2548
config **.node[113].xCor 2069
config **.node[113].yCor 2050
config **.node[114].xCor 2184
config **.node[114].yCor 2209
config **.node[115].xCor 2278
config **.node[115].yCor 2390
config **.node[116].xCor 2249
config **.node[116].yCor 2299
config **.node[117].xCor 2356
config **.node[117].yCor 2303
config **.node[118].xCor 2192
config **.node[118].yCor 2475
config **.node[119].xCor 1720
config **.node[119].yCor 2911
config **.node[120].xCor 2400
config **.node[120].yCor 2887
config **.node[121].xCor 3344
config **.node[121].yCor 1890
config **.node[122].xCor 3136
config **.node[122].yCor 2418
config **.node[123].xCor 3243
config **.node[123].yCor 2525
config **.node[124].xCor 2396
config **.node[124].yCor 1267
config **.node[125].xCor 467
config **.node[125].yCor 1875
config **.node[126].xCor 3506
config **.node[126].yCor 1221
config **.node[127].xCor 1034
config **.node[127].yCor 1474
config **.node[128].xCor 2908
config **.node[128].yCor 1784
config **.node[129].xCor 2876
config **.node[129].yCor 1761
config **.node[130].xCor 2849
config **.node[130].yCor 1795
config **.node[131].xCor 3029
config **.node[131].yCor 1859
config **.node[132].xCor 2924
config **.node[132].yCor 1848
config **.node[133].xCor 3493
config **.node[133].yCor 1559
config **.node[134].xCor 2760
config **.node[134].yCor 1761
config **.node[135].xCor 1644
config **.node[135].yCor 3755
config **.node[136].xCor 1463
config **.node[136].yCor 3432
config **.node[137].xCor 2595
config **.node[137].yCor 2849
config **.node[138].xCor 2581
config **.node[138].yCor 2867
config **.node[139].xCor 2524
config **.node[139].yCor 2911
config **.node[140].xCor 2570
config **.node[140].yCor 2924
config **.node[141].xCor 2676
config **.node[141].yCor 2890
config **.node[142].xCor 2666
config **.node[142].yCor 2876
config **.node[143].xCor 3735
config **.node[143].yCor 1726
config **.node[144].xCor 1637
config **.node[144].yCor 3438

vector 0 TaxiNetwork.node[5] visitedPerTimestep ETV
vector 1 TaxiNetwork.node[84] visitedPerTimestep ETV
vector 2 TaxiNetwork.node[87] visitedPerTimestep ETV
vector 3 TaxiNetwork.node[30] visitedPerTimestep ETV
vector 4 TaxiNetwork.node[10] visitedPerTimestep ETV
vector 5 TaxiNetwork.node[2] visitedPerTimestep ETV
vector 6 TaxiNetwork.node[137] visitedPerTimestep ETV
vector 7 TaxiNetwork.node[1] visitedPerTimestep ETV
vector 8 TaxiNetwork.node[94] visitedPerTimestep ETV
vector 9 TaxiNetwork.node[54] visitedPerTimestep ETV
vector 10 TaxiNetwork.node[52] visitedPerTimestep ETV
vector 11 TaxiNetwork.node[142] visitedPerTimestep ETV
vector 12 TaxiNetwork.node[86] visitedPerTimestep ETV
vector 13 TaxiNetwork.node[103] visitedPerTimestep ETV
vector 14 TaxiNetwork.node[3] visitedPerTimestep ETV
vector 15 TaxiNetwork.node[141] visitedPerTimestep ETV
vector 16 TaxiNetwork.node[92] visitedPerTimestep ETV
vector 17 TaxiNetwork.node[102] visitedPerTimestep ETV
vector 18 TaxiNetwork.node[104] visitedPerTimestep ETV
vector 19 TaxiNetwork.node[88] visitedPerTimestep ETV
vector 20 TaxiNetwork.node[53] visitedPerTimestep ETV
vector 21 TaxiNetwork.node[6] visitedPerTimestep ETV
vector 22 TaxiNetwork.node[45] visitedPerTimestep ETV
vector 23 TaxiNetwork.node[85] visitedPerTimestep ETV
vector 24 TaxiNetwork.node[9] visitedPerTimestep ETV
vector 25 TaxiNetwork.node[122] visitedPerTimestep ETV
vector 26 TaxiNetwork.node[63] visitedPerTimestep ETV
vector 27 TaxiNetwork.node[60] visitedPerTimestep ETV
vector 28 TaxiNetwork.node[126] visitedPerTimestep ETV
vector 29 TaxiNetwork.node[70] visitedPerTimestep ETV
vector 30 TaxiNetwork.node[68] visitedPerTimestep ETV
vector 31 TaxiNetwork.node[62] visitedPerTimestep ETV
vector 32 TaxiNetwork.node[131] visitedPerTimestep ETV
vector 33 TaxiNetwork.node[132] visitedPerTimestep ETV
vector 34 TaxiNetwork.node[110] visitedPerTimestep ETV
vector 35 TaxiNetwork.node[128] visitedPerTimestep ETV
vector 36 TaxiNetwork.node[80] visitedPerTimestep ETV
vector 37 TaxiNetwork.node[99] visitedPerTimestep ETV
vector 38 TaxiNetwork.node[61] visitedPerTimestep ETV
vector 39 TaxiNetwork.node[130] visitedPerTimestep ETV
vector 40 TaxiNetwork.node[69] visitedPerTimestep ETV
vector 41 TaxiNetwork.node[73] visitedPerTimestep ETV
vector 42 TaxiNetwork.node[72] visitedPerTimestep ETV
vector 43 TaxiNetwork.node[79] visitedPerTimestep ETV
vector 44 TaxiNetwork.node[64] visitedPerTimestep ETV
vector 45 TaxiNetwork.node[129] visitedPerTimestep ETV
vector 46 TaxiNetwork.node[11] visitedPerTimestep ETV
vector 47 TaxiNetwork.node[89] visitedPerTimestep ETV
vector 48 TaxiNetwork.node[19] visitedPerTimestep ETV
vector 49 TaxiNetwork.node[16] visitedPerTimestep ETV
vector 50 TaxiNetwork.node[18] visitedPerTimestep ETV
vector 51 TaxiNetwork.node[116] visitedPerTimestep ETV
vector 52 TaxiNetwork.node[118] visitedPerTimestep ETV
vector 53 TaxiNetwork.node[93] visitedPerTimestep ETV
vector 54 TaxiNetwork.node[29] visitedPerTimestep ETV
vector 55 TaxiNetwork.node[35] visitedPerTimestep ETV
vector 56 TaxiNetwork.node[90] visitedPerTimestep ETV
vector 57 TaxiNetwork.node[55] visitedPerTimestep ETV
vector 58 TaxiNetwork.node[7] visitedPerTimestep ETV
vector 59 TaxiNetwork.node[139] visitedPerTimestep ETV
vector 60 TaxiNetwork.node[46] visitedPerTimestep ETV
vector 61 TaxiNetwork.node[0] visitedPerTimestep ETV
vector 62 TaxiNetwork.node[138] visitedPerTimestep ETV
vector 63 TaxiNetwork.node[100] visitedPerTimestep ETV
vector 64 TaxiNetwork.node[8] visitedPerTimestep ETV
vector 65 TaxiNetwork.node[17] visitedPerTimestep ETV
vector 66 TaxiNetwork.node[44] visitedPerTimestep ETV
vector 67 TaxiNetwork.node[117] visitedPerTimestep ETV
vector 68 TaxiNetwork.node[14] visitedPerTimestep ETV
vector 69 TaxiNetwork.node[22] visitedPerTimestep ETV
vector 70 TaxiNetwork.node[36] visitedPerTimestep ETV
vector 71 TaxiNetwork.node[106] visitedPerTimestep ETV
vector 72 TaxiNetwork.node[58] visitedPerTimestep ETV
vector 73 TaxiNetwork.node[114] visitedPerTimestep ETV
vector 74 TaxiNetwork.node[113] visitedPerTimestep ETV
vector 75 TaxiNetwork.node[12] visitedPerTimestep ETV
vector 76 TaxiNetwork.node[123] visitedPerTimestep ETV
vector 77 TaxiNetwork.node[105] visitedPerTimestep ETV
vector 78 TaxiNetwork.node[4] visitedPerTimestep ETV
vector 79 TaxiNetwork.node[15] visitedPerTimestep ETV
vector 80 TaxiNetwork.node[120] visitedPerTimestep ETV
vector 81 TaxiNetwork.node[20] visitedPerTimestep ETV
vector 82 TaxiNetwork.node[91] visitedPerTimestep ETV
vector 83 TaxiNetwork.node[40] visitedPerTimestep ETV
vector 84 TaxiNetwork.node[82] visitedPerTimestep ETV
vector 85 TaxiNetwork.node[140] visitedPerTimestep ETV
vector 86 TaxiNetwork.node[56] visitedPerTimestep ETV
vector 87 TaxiNetwork.node[33] visitedPerTimestep ETV
vector 88 TaxiNetwork.node[13] visitedPerTimestep ETV
vector 89 TaxiNetwork.node[115] visitedPerTimestep ETV
vector 90 TaxiNetwork.node[67] visitedPerTimestep ETV
vector 91 TaxiNetwork.node[37] visitedPerTimestep ETV
vector 92 TaxiNetwork.node[24] visitedPerTimestep ETV
vector 93 TaxiNetwork.node[26] visitedPerTimestep ETV
vector 94 TaxiNetwork.node[21] visitedPerTimestep ETV
vector 95 TaxiNetwork.node[34] visitedPerTimestep ETV
vector 96 TaxiNetwork.node[32] visitedPerTimestep ETV
vector 97 TaxiNetwork.node[101] visitedPerTimestep ETV
vector 98 TaxiNetwork.node[74] visitedPerTimestep ETV
vector 99 TaxiNetwork.node[31] visitedPerTimestep ETV
vector 100 TaxiNetwork.node[83] visitedPerTimestep ETV
vector 101 TaxiNetwork.node[121] visitedPerTimestep ETV
vector 102 TaxiNetwork.node[75] visitedPerTimestep ETV
vector 103 TaxiNetwork.node[71] visitedPerTimestep ETV
vector 104 TaxiNetwork.node[76] visitedPerTimestep ETV
vector 105 TaxiNetwork.node[143] visitedPerTimestep ETV
vector 106 TaxiNetwork.node[133] visitedPerTimestep ETV
vector 107 TaxiNetwork.node[66] visitedPerTimestep ETV
vector 108 TaxiNetwork.node[77] visitedPerTimestep ETV
vector 109 TaxiNetwork.node[65] visitedPerTimestep ETV
vector 110 TaxiNetwork.node[39] visitedPerTimestep ETV
vector 111 TaxiNetwork.node[28] visitedPerTimestep ETV
vector 112 TaxiNetwork.node[27] visitedPerTimestep ETV
vector 113 TaxiNetwork.node[112] visitedPerTimestep ETV
vector 114 TaxiNetwork.node[59] visitedPerTimestep ETV
vector 115 TaxiNetwork.node[119] visitedPerTimestep ETV
vector 116 TaxiNetwork.node[111] visitedPerTimestep ETV
vector 117 TaxiNetwork.node[57] visitedPerTimestep ETV
vector 118 TaxiNetwork.node[25] visitedPerTimestep ETV
vector 119 TaxiNetwork.node[38] visitedPerTimestep ETV
vector 120 TaxiNetwork.node[41] visitedPerTimestep ETV
vector 121 TaxiNetwork.node[23] visitedPerTimestep ETV
vector 122 TaxiNetwork.node[78] visitedPerTimestep ETV
vector 123 TaxiNetwork.node[134] visitedPerTimestep ETV
vector 124 TaxiNetwork.node[144] visitedPerTimestep ETV
vector 125 TaxiNetwork.node[96] visitedPerTimestep ETV
vector 126 TaxiNetwork.node[124] visitedPerTimestep ETV
vector 127 TaxiNetwork.node[51] visitedPerTimestep ETV
vector 128 TaxiNetwork.node[48] visitedPerTimestep ETV
vector 129 TaxiNetwork.node[50] visitedPerTimestep ETV
vector 130 TaxiNetwork.node[98] visitedPerTimestep ETV
vector 131 TaxiNetwork.node[136] visitedPerTimestep ETV
vector 132 TaxiNetwork.node[49] visitedPerTimestep ETV
vector 133 TaxiNetwork.node[135] visitedPerTimestep ETV
vector 134 TaxiNetwork.node[127] visitedPerTimestep ETV
vector 135 TaxiNetwork.node[81] visitedPerTimestep ETV
vector 136 TaxiNetwork.node[125] visitedPerTimestep ETV
vector 137 TaxiNetwork.node[107] visitedPerTimestep ETV
vector 138 TaxiNetwork.node[95] visitedPerTimestep ETV
vector 139 TaxiNetwork.node[108] visitedPerTimestep ETV
vector 140 TaxiNetwork.node[42] visitedPerTimestep ETV
vector 141 TaxiNetwork.node[109] visitedPerTimestep ETV
0	16810 256 1 2300 0 0 21 1 141 2419 306275
1	17066 190 2 2752 0 0 16 2 143 1760 211764
2	17256 307 3 2930 0 0 26 3 144 2778 329712
3	17563 245 4 2968 0 0 20 4 144 2428 318034
4	17808 284 5 2966 0 0 24 5 144 2446 295726
5	18092 384 6 2972 0 0 32 6 144 3692 451444
6	18476 318 7 2942 0 0 26 7 144 3063 382109
7	18794 305 8 2922 0 0 25 8 144 2958 373240
8	19099 226 9 2844 0 0 19 9 144 2143 261269
9	19325 252 10 2880 0 0 21 10 144 2281 270949
10	19577 209 11 2988 0 0 16 11 144 1855 233393
11	19786 407 12 2954 0 0 31 12 144 3531 440943
12	20193 341 13 2948 0 0 26 13 144 2950 361228
13	20534 384 14 2976 0 0 29 14 144 3385 427111
14	20918 417 16 2958 0 0 32 15 144 3669 455759
15	21335 355 17 2990 0 0 27 16 144 3078 371702
16	21690 178 18 2886 0 0 14 17 144 1422 169246
17	21868 325 20 2962 0 0 25 18 144 2779 335643
18	22193 343 22 2876 0 0 26 19 144 3061 382861
19	22536 295 24 2982 0 0 23 20 144 2452 280960
20	22831 185 27 2114 0 0 14 21 137 1645 205725
21	23016 278 29 2610 0 0 21 22 143 2495 317865
22	23294 214 30 2616 0 0 16 23 143 1946 249566
23	23508 366 31 2774 0 0 28 24 143 3256 397612
24	23874 356 34 2642 0 0 27 25 143 3131 387639
25	24230 266 35 2920 0 0 20 26 144 2370 296566
26	24496 231 36 2906 0 0 17 27 144 2156 287584
27	24727 256 37 2900 0 0 19 28 144 2294 289924
28	24983 134 38 2438 0 0 10 29 143 1196 153792
29	25117 148 39 2514 0 0 11 30 143 1342 173826
30	25265 227 40 2896 0 0 17 31 144 2032 262860
31	25492 326 41 2564 0 0 24 32 143 3028 401602
32	25818 256 42 2912 0 0 19 33 144 2364 312320
33	26074 205 44 2910 0 0 15 34 144 1938 261678
34	26279 200 45 2580 0 0 15 35 143 1808 230780
35	26479 163 46 2556 0 0 12 36 143 1538 206878
36	26642 109 47 2524 0 0 8 37 143 1001 134355
37	26751 231 48 2898 0 0 17 38 144 2132 278508
38	26982 202 49 2532 0 0 15 39 143 1880 246128
39	27184 135 50 2526 0 0 10 40 143 1263 168435
40	27319 135 52 2414 0 0 10 41 141 1224 158208
41	27454 176 53 2552 0 0 13 42 143 1643 216933
42	27630 118 54 2364 0 0 9 43 141 1059 131421
43	27748 149 55 2344 0 0 11 44 141 1365 177405
44	27897 175 57 2510 0 0 13 45 143 1585 201461
45	28072 218 58 2536 0 0 16 46 143 2021 263619
46	28290 304 60 2652 0 0 23 47 143 2731 341145
47	28594 259 61 2646 0 0 20 48 143 2259 268437
48	28853 331 64 3004 0 0 25 49 144 3015 374817
49	29184 237 65 2600 0 0 18 50 143 2045 248493
50	29421 391 66 2254 0 0 30 51 141 3351 393619
51	29812 167 70 1742 0 0 13 52 135 1385 156403
52	29979 139 71 2222 0 0 11 53 137 1121 123075
53	30118 158 77 2926 0 0 12 54 144 1374 169268
54	30276 134 78 2848 0 0 10 55 144 1232 158732
55	30410 143 79 2846 0 0 11 56 144 1263 155751
56	30553 273 80 2936 0 0 21 57 144 2405 294197
57	30826 296 86 2784 0 0 22 58 143 2744 351562
58	31122 256 93 2938 0 0 19 59 144 2365 303075
59	31378 382 96 2792 0 0 29 60 143 3454 427034
60	31760 220 97 2484 0 0 17 61 143 1892 218886
61	31980 253 98 2946 0 0 19 62 144 2289 284149
62	32233 412 99 2882 0 0 31 63 144 3764 472138
63	32645 384 101 2478 0 0 29 64 143 3406 412442
64	33029 199 102 2986 0 0 15 65 144 1783 220865
65	33228 390 105 2944 0 0 29 66 144 3603 461037
66	33618 433 107 2974 0 0 33 67 144 3844 465942
67	34051 161 114 1886 0 0 12 68 137 1468 184036
68	34212 321 115 2598 0 0 24 69 143 2903 360705
69	34533 118 122 2840 0 0 9 70 144 1065 130991
70	34651 319 123 2952 0 0 24 71 144 2954 372314
71	34970 38 128 481 0 0 3 72 115 302 31634
72	35008 63 129 1566 0 0 5 73 135 498 52092
73	35071 147 130 1740 0 0 11 74 135 1341 166581
74	35218 105 131 1490 0 0 8 75 135 906 106354
75	35323 234 137 2776 0 0 18 76 143 2066 246368
76	35557 240 138 2916 0 0 18 77 144 2196 275328
77	35797 134 148 2980 0 0 10 78 144 1254 160324
78	35931 324 165 2764 0 0 25 79 143 2849 336423
79	36255 268 181 2782 0 0 20 80 143 2440 304226
80	36523 214 183 2572 0 0 16 81 143 1998 254332
81	36737 265 185 2648 0 0 20 82 143 2404 296312
82	37002 224 186 2862 0 0 17 83 144 2075 257875
83	37226 108 190 2994 0 0 8 84 144 1036 137528
84	37334 162 193 3000 0 0 12 85 144 1552 203856
85	37496 257 197 2156 0 0 19 86 137 2426 312432
86	37753 119 227 1954 0 0 9 87 137 1078 130906
87	37872 318 240 2992 0 0 24 88 144 2932 364824
88	38190 245 254 3008 0 0 18 89 145 2315 302019
89	38435 201 265 2582 0 0 15 90 143 1853 232141
90	38636 121 278 2914 0 0 9 91 144 1144 147544
91	38757 105 291 2808 0 0 8 92 144 967 120511
92	38862 93 292 2834 0 0 7 93 144 871 110705
93	38955 67 293 2682 0 0 5 94 143 639 83387
94	39022 66 295 2854 0 0 5 95 144 599 73615
95	39088 159 296 2812 0 0 12 96 144 1451 177915
96	39247 244 297 2932 0 0 18 97 144 2318 302692
97	39491 405 300 2960 0 0 30 98 144 3872 504948
98	39896 54 313 2928 0 0 4 99 144 516 67886
99	39950 159 315 2850 0 0 12 100 144 1449 177545
100	40109 142 316 2684 0 0 10 101 143 1204 146590
101	40251 249 380 2454 0 0 17 102 143 2188 284264
102	40500 117 385 2902 0 0 8 103 144 1015 130999
103	40617 44 386 2520 0 0 3 104 143 388 51146
104	40661 44 387 1868 0 0 3 105 137 377 48019
105	40705 146 393 2904 0 0 10 106 144 1278 164972
106	40851 223 399 2558 0 0 15 107 143 2007 269849
107	41074 102 413 2562 0 0 7 108 143 904 117720
108	41176 118 415 2530 0 0 8 109 143 1059 141083
109	41294 103 418 2548 0 0 7 110 143 917 120997
110	41397 205 424 2998 0 0 14 111 144 1851 246707
111	41602 72 425 2712 0 0 5 112 143 638 82250
112	41674 116 426 2996 0 0 8 113 144 1047 138111
113	41790 43 443 1442 0 0 3 114 135 371 46105
114	41833 57 465 1570 0 0 4 115 135 485 59063
115	41890 44 483 1302 0 0 3 116 135 386 49906
116	41934 115 496 2978 0 0 8 117 144 1023 131675
117	42049 57 499 1440 0 0 4 118 135 497 61917
118	42106 132 600 2730 0 0 9 119 143 1218 165896
119	42238 74 601 2734 0 0 5 120 143 692 96196
120	42312 119 603 2736 0 0 8 121 143 1122 157784
121	42431 44 605 2714 0 0 3 122 143 408 55782
122	42475 89 915 2374 0 0 6 123 141 787 103505
123	42564 134 921 2516 0 0 9 124 143 1224 166688
124	42698 74 969 1308 0 0 5 125 135 659 86923
125	42772 15 1006 1006 0 0 1 126 126 126 15876
126	42787 15 1040 1040 0 0 1 127 127 127 16129
127	42802 60 1230 1320 0 0 4 131 135 536 71836
128	42862 90 1232 1260 0 0 6 131 135 802 107216
129	42952 45 1234 1314 0 0 3 132 135 399 53073
130	42997 45 1244 1310 0 0 3 133 135 403 54139
131	43042 60 1246 1318 0 0 4 134 135 539 72631
132	43102 60 1250 1312 0 0 4 135 135 540 72900
133	43162 15 1266 1266 0 0 1 135 135 135 18225
134	43177 90 1814 2448 0 0 6 136 143 837 116813
135	43267 15 1816 1816 0 0 1 137 137 137 18769
136	43282 15 2428 2428 0 0 1 142 142 142 20164
137	43297 15 2430 2430 0 0 1 143 143 143 20449
138	43312 15 2522 2522 0 0 1 143 143 143 20449
139	43327 30 2722 2726 0 0 2 143 143 286 40898
140	43357 30 2724 2738 0 0 2 143 143 286 40898
141	43387 15 2740 2740 0 0 1 143 143 143 20449

