version 3
run General-445-20250904-14:13:24-15968
attr configname General
attr datetime 20250904-14:13:24
attr datetimef 20250904-141324
attr experiment General
attr inifile omnetpp.ini
attr iterationvars ""
attr iterationvarsd ""
attr iterationvarsf ""
attr measurement ""
attr network TaxiNetwork
attr processid 15968
attr repetition 445
attr replication #445
attr resultdir results
attr runnumber 445
attr seedset 445
config network TaxiNetwork
config seed-set 445
config num-rngs 1
config sim-time-limit 10s
config repeat 500
config *.numWalkers 1
config *.enableDuplication true
config *.rc 700
config **.node[0].xCor 2933
config **.node[0].yCor 2747
config **.node[1].xCor 2919
config **.node[1].yCor 2817
config **.node[2].xCor 2910
config **.node[2].yCor 2861
config **.node[3].xCor 2429
config **.node[3].yCor 2851
config **.node[4].xCor 2908
config **.node[4].yCor 2714
config **.node[5].xCor 2606
config **.node[5].yCor 2722
config **.node[6].xCor 2575
config **.node[6].yCor 2753
config **.node[7].xCor 2654
config **.node[7].yCor 2513
config **.node[8].xCor 2773
config **.node[8].yCor 2580
config **.node[9].xCor 3043
config **.node[9].yCor 2780
config **.node[10].xCor 3020
config **.node[10].yCor 2813
config **.node[11].xCor 2599
config **.node[11].yCor 2300
config **.node[12].xCor 2917
config **.node[12].yCor 2698
config **.node[13].xCor 2625
config **.node[13].yCor 2641
config **.node[14].xCor 2604
config **.node[14].yCor 2790
config **.node[15].xCor 2786
config **.node[15].yCor 3082
config **.node[16].xCor 2603
config **.node[16].yCor 2802
config **.node[17].xCor 2637
config **.node[17].yCor 2869
config **.node[18].xCor 2675
config **.node[18].yCor 2955
config **.node[19].xCor 2845
config **.node[19].yCor 2937
config **.node[20].xCor 2860
config **.node[20].yCor 2888
config **.node[21].xCor 2843
config **.node[21].yCor 4158
config **.node[22].xCor 2852
config **.node[22].yCor 4017
config **.node[23].xCor 2892
config **.node[23].yCor 4961
config **.node[24].xCor 2313
config **.node[24].yCor 3993
config **.node[25].xCor 2891
config **.node[25].yCor 4959
config **.node[26].xCor 2370
config **.node[26].yCor 4050
config **.node[27].xCor 2788
config **.node[27].yCor 3958
config **.node[28].xCor 2819
config **.node[28].yCor 4428
config **.node[29].xCor 2790
config **.node[29].yCor 3761
config **.node[30].xCor 2809
config **.node[30].yCor 2908
config **.node[31].xCor 2919
config **.node[31].yCor 3575
config **.node[32].xCor 2946
config **.node[32].yCor 3466
config **.node[33].xCor 2911
config **.node[33].yCor 3453
config **.node[34].xCor 2370
config **.node[34].yCor 3656
config **.node[35].xCor 2438
config **.node[35].yCor 3738
config **.node[36].xCor 2737
config **.node[36].yCor 3570
config **.node[37].xCor 2921
config **.node[37].yCor 3698
config **.node[38].xCor 2907
config **.node[38].yCor 5197
config **.node[39].xCor 2860
config **.node[39].yCor 3852
config **.node[40].xCor 2927
config **.node[40].yCor 3684
config **.node[41].xCor 3023
config **.node[41].yCor 5313
config **.node[42].xCor 3220
config **.node[42].yCor 5811
config **.node[43].xCor 3432
config **.node[43].yCor 5715
config **.node[44].xCor 2754
config **.node[44].yCor 2463
config **.node[45].xCor 2646
config **.node[45].yCor 2673
config **.node[46].xCor 3051
config **.node[46].yCor 2792
config **.node[47].xCor 1666
config **.node[47].yCor 3697
config **.node[48].xCor 1662
config **.node[48].yCor 3694
config **.node[49].xCor 1664
config **.node[49].yCor 3667
config **.node[50].xCor 1660
config **.node[50].yCor 3664
config **.node[51].xCor 1710
config **.node[51].yCor 3573
config **.node[52].xCor 2082
config **.node[52].yCor 2650
config **.node[53].xCor 2086
config **.node[53].yCor 2657
config **.node[54].xCor 2257
config **.node[54].yCor 3232
config **.node[55].xCor 2258
config **.node[55].yCor 3225
config **.node[56].xCor 1926
config **.node[56].yCor 2570
config **.node[57].xCor 1926
config **.node[57].yCor 2576
config **.node[58].xCor 2104
config **.node[58].yCor 1758
config **.node[59].xCor 1957
config **.node[59].yCor 1826
config **.node[60].xCor 3473
config **.node[60].yCor 1523
config **.node[61].xCor 3335
config **.node[61].yCor 1726
config **.node[62].xCor 3478
config **.node[62].yCor 1517
config **.node[63].xCor 3386
config **.node[63].yCor 2119
config **.node[64].xCor 3474
config **.node[64].yCor 1762
config **.node[65].xCor 3797
config **.node[65].yCor 2099
config **.node[66].xCor 3642
config **.node[66].yCor 2136
config **.node[67].xCor 3481
config **.node[67].yCor 2334
config **.node[68].xCor 3088
config **.node[68].yCor 1505
config **.node[69].xCor 3037
config **.node[69].yCor 1693
config **.node[70].xCor 3026
config **.node[70].yCor 1700
config **.node[71].xCor 3019
config **.node[71].yCor 669
config **.node[72].xCor 3513
config **.node[72].yCor 1358
config **.node[73].xCor 3545
config **.node[73].yCor 1230
config **.node[74].xCor 4228
config **.node[74].yCor 4220
config **.node[75].xCor 3379
config **.node[75].yCor 1207
config **.node[76].xCor 3596
config **.node[76].yCor 963
config **.node[77].xCor 3637
config **.node[77].yCor 1188
config **.node[78].xCor 3759
config **.node[78].yCor 1030
config **.node[79].xCor 2918
config **.node[79].yCor 1455
config **.node[80].xCor 2711
config **.node[80].yCor 1297
config **.node[81].xCor 439
config **.node[81].yCor 1623
config **.node[82].xCor 2857
config **.node[82].yCor 3581
config **.node[83].xCor 2858
config **.node[83].yCor 3584
config **.node[84].xCor 2999
config **.node[84].yCor 2636
config **.node[85].xCor 2905
config **.node[85].yCor 2778
config **.node[86].xCor 2653
config **.node[86].yCor 2845
config **.node[87].xCor 2864
config **.node[87].yCor 2836
config **.node[88].xCor 2426
config **.node[88].yCor 2892
config **.node[89].xCor 2964
config **.node[89].yCor 2804
config **.node[90].xCor 2586
config **.node[90].yCor 3135
config **.node[91].xCor 2864
config **.node[91].yCor 2980
config **.node[92].xCor 2527
config **.node[92].yCor 3219
config **.node[93].xCor 2863
config **.node[93].yCor 3142
config **.node[94].xCor 2485
config **.node[94].yCor 3269
config **.node[95].xCor 2653
config **.node[95].yCor 1065
config **.node[96].xCor 4062
config **.node[96].yCor 400
config **.node[97].xCor 5762
config **.node[97].yCor 3023
config **.node[98].xCor 1414
config **.node[98].yCor 3461
config **.node[99].xCor 2911
config **.node[99].yCor 1737
config **.node[100].xCor 2595
config **.node[100].yCor 2299
config **.node[101].xCor 2702
config **.node[101].yCor 3419
config **.node[102].xCor 2813
config **.node[102].yCor 3307
config **.node[103].xCor 2638
config **.node[103].yCor 2258
config **.node[104].xCor 2590
config **.node[104].yCor 3125
config **.node[105].xCor 1856
config **.node[105].yCor 2990
config **.node[106].xCor 1894
config **.node[106].yCor 2239
config **.node[107].xCor 383
config **.node[107].yCor 1251
config **.node[108].xCor 3447
config **.node[108].yCor 5489
config **.node[109].xCor 3450
config **.node[109].yCor 5697
config **.node[110].xCor 2719
config **.node[110].yCor 1920
config **.node[111].xCor 2085
config **.node[111].yCor 2389
config **.node[112].xCor 1910
config **.node[112].yCor 2548
config **.node[113].xCor 2069
config **.node[113].yCor 2050
config **.node[114].xCor 2184
config **.node[114].yCor 2209
config **.node[115].xCor 2278
config **.node[115].yCor 2390
config **.node[116].xCor 2249
config **.node[116].yCor 2299
config **.node[117].xCor 2356
config **.node[117].yCor 2303
config **.node[118].xCor 2192
config **.node[118].yCor 2475
config **.node[119].xCor 1720
config **.node[119].yCor 2911
config **.node[120].xCor 2400
config **.node[120].yCor 2887
config **.node[121].xCor 3344
config **.node[121].yCor 1890
config **.node[122].xCor 3136
config **.node[122].yCor 2418
config **.node[123].xCor 3243
config **.node[123].yCor 2525
config **.node[124].xCor 2396
config **.node[124].yCor 1267
config **.node[125].xCor 467
config **.node[125].yCor 1875
config **.node[126].xCor 3506
config **.node[126].yCor 1221
config **.node[127].xCor 1034
config **.node[127].yCor 1474
config **.node[128].xCor 2908
config **.node[128].yCor 1784
config **.node[129].xCor 2876
config **.node[129].yCor 1761
config **.node[130].xCor 2849
config **.node[130].yCor 1795
config **.node[131].xCor 3029
config **.node[131].yCor 1859
config **.node[132].xCor 2924
config **.node[132].yCor 1848
config **.node[133].xCor 3493
config **.node[133].yCor 1559
config **.node[134].xCor 2760
config **.node[134].yCor 1761
config **.node[135].xCor 1644
config **.node[135].yCor 3755
config **.node[136].xCor 1463
config **.node[136].yCor 3432
config **.node[137].xCor 2595
config **.node[137].yCor 2849
config **.node[138].xCor 2581
config **.node[138].yCor 2867
config **.node[139].xCor 2524
config **.node[139].yCor 2911
config **.node[140].xCor 2570
config **.node[140].yCor 2924
config **.node[141].xCor 2676
config **.node[141].yCor 2890
config **.node[142].xCor 2666
config **.node[142].yCor 2876
config **.node[143].xCor 3735
config **.node[143].yCor 1726
config **.node[144].xCor 1637
config **.node[144].yCor 3438

vector 0 TaxiNetwork.node[100] visitedPerTimestep ETV
vector 1 TaxiNetwork.node[117] visitedPerTimestep ETV
vector 2 TaxiNetwork.node[134] visitedPerTimestep ETV
vector 3 TaxiNetwork.node[99] visitedPerTimestep ETV
vector 4 TaxiNetwork.node[121] visitedPerTimestep ETV
vector 5 TaxiNetwork.node[72] visitedPerTimestep ETV
vector 6 TaxiNetwork.node[60] visitedPerTimestep ETV
vector 7 TaxiNetwork.node[78] visitedPerTimestep ETV
vector 8 TaxiNetwork.node[143] visitedPerTimestep ETV
vector 9 TaxiNetwork.node[73] visitedPerTimestep ETV
vector 10 TaxiNetwork.node[69] visitedPerTimestep ETV
vector 11 TaxiNetwork.node[70] visitedPerTimestep ETV
vector 12 TaxiNetwork.node[61] visitedPerTimestep ETV
vector 13 TaxiNetwork.node[133] visitedPerTimestep ETV
vector 14 TaxiNetwork.node[130] visitedPerTimestep ETV
vector 15 TaxiNetwork.node[80] visitedPerTimestep ETV
vector 16 TaxiNetwork.node[132] visitedPerTimestep ETV
vector 17 TaxiNetwork.node[68] visitedPerTimestep ETV
vector 18 TaxiNetwork.node[64] visitedPerTimestep ETV
vector 19 TaxiNetwork.node[79] visitedPerTimestep ETV
vector 20 TaxiNetwork.node[66] visitedPerTimestep ETV
vector 21 TaxiNetwork.node[123] visitedPerTimestep ETV
vector 22 TaxiNetwork.node[11] visitedPerTimestep ETV
vector 23 TaxiNetwork.node[44] visitedPerTimestep ETV
vector 24 TaxiNetwork.node[16] visitedPerTimestep ETV
vector 25 TaxiNetwork.node[7] visitedPerTimestep ETV
vector 26 TaxiNetwork.node[85] visitedPerTimestep ETV
vector 27 TaxiNetwork.node[20] visitedPerTimestep ETV
vector 28 TaxiNetwork.node[128] visitedPerTimestep ETV
vector 29 TaxiNetwork.node[63] visitedPerTimestep ETV
vector 30 TaxiNetwork.node[131] visitedPerTimestep ETV
vector 31 TaxiNetwork.node[110] visitedPerTimestep ETV
vector 32 TaxiNetwork.node[122] visitedPerTimestep ETV
vector 33 TaxiNetwork.node[17] visitedPerTimestep ETV
vector 34 TaxiNetwork.node[8] visitedPerTimestep ETV
vector 35 TaxiNetwork.node[30] visitedPerTimestep ETV
vector 36 TaxiNetwork.node[90] visitedPerTimestep ETV
vector 37 TaxiNetwork.node[137] visitedPerTimestep ETV
vector 38 TaxiNetwork.node[55] visitedPerTimestep ETV
vector 39 TaxiNetwork.node[87] visitedPerTimestep ETV
vector 40 TaxiNetwork.node[88] visitedPerTimestep ETV
vector 41 TaxiNetwork.node[6] visitedPerTimestep ETV
vector 42 TaxiNetwork.node[115] visitedPerTimestep ETV
vector 43 TaxiNetwork.node[52] visitedPerTimestep ETV
vector 44 TaxiNetwork.node[56] visitedPerTimestep ETV
vector 45 TaxiNetwork.node[3] visitedPerTimestep ETV
vector 46 TaxiNetwork.node[142] visitedPerTimestep ETV
vector 47 TaxiNetwork.node[62] visitedPerTimestep ETV
vector 48 TaxiNetwork.node[126] visitedPerTimestep ETV
vector 49 TaxiNetwork.node[65] visitedPerTimestep ETV
vector 50 TaxiNetwork.node[77] visitedPerTimestep ETV
vector 51 TaxiNetwork.node[129] visitedPerTimestep ETV
vector 52 TaxiNetwork.node[95] visitedPerTimestep ETV
vector 53 TaxiNetwork.node[124] visitedPerTimestep ETV
vector 54 TaxiNetwork.node[67] visitedPerTimestep ETV
vector 55 TaxiNetwork.node[10] visitedPerTimestep ETV
vector 56 TaxiNetwork.node[12] visitedPerTimestep ETV
vector 57 TaxiNetwork.node[91] visitedPerTimestep ETV
vector 58 TaxiNetwork.node[74] visitedPerTimestep ETV
vector 59 TaxiNetwork.node[89] visitedPerTimestep ETV
vector 60 TaxiNetwork.node[101] visitedPerTimestep ETV
vector 61 TaxiNetwork.node[104] visitedPerTimestep ETV
vector 62 TaxiNetwork.node[19] visitedPerTimestep ETV
vector 63 TaxiNetwork.node[141] visitedPerTimestep ETV
vector 64 TaxiNetwork.node[138] visitedPerTimestep ETV
vector 65 TaxiNetwork.node[53] visitedPerTimestep ETV
vector 66 TaxiNetwork.node[31] visitedPerTimestep ETV
vector 67 TaxiNetwork.node[21] visitedPerTimestep ETV
vector 68 TaxiNetwork.node[82] visitedPerTimestep ETV
vector 69 TaxiNetwork.node[27] visitedPerTimestep ETV
vector 70 TaxiNetwork.node[26] visitedPerTimestep ETV
vector 71 TaxiNetwork.node[39] visitedPerTimestep ETV
vector 72 TaxiNetwork.node[24] visitedPerTimestep ETV
vector 73 TaxiNetwork.node[83] visitedPerTimestep ETV
vector 74 TaxiNetwork.node[35] visitedPerTimestep ETV
vector 75 TaxiNetwork.node[37] visitedPerTimestep ETV
vector 76 TaxiNetwork.node[93] visitedPerTimestep ETV
vector 77 TaxiNetwork.node[5] visitedPerTimestep ETV
vector 78 TaxiNetwork.node[1] visitedPerTimestep ETV
vector 79 TaxiNetwork.node[127] visitedPerTimestep ETV
vector 80 TaxiNetwork.node[92] visitedPerTimestep ETV
vector 81 TaxiNetwork.node[120] visitedPerTimestep ETV
vector 82 TaxiNetwork.node[34] visitedPerTimestep ETV
vector 83 TaxiNetwork.node[36] visitedPerTimestep ETV
vector 84 TaxiNetwork.node[51] visitedPerTimestep ETV
vector 85 TaxiNetwork.node[98] visitedPerTimestep ETV
vector 86 TaxiNetwork.node[50] visitedPerTimestep ETV
vector 87 TaxiNetwork.node[119] visitedPerTimestep ETV
vector 88 TaxiNetwork.node[54] visitedPerTimestep ETV
vector 89 TaxiNetwork.node[14] visitedPerTimestep ETV
vector 90 TaxiNetwork.node[105] visitedPerTimestep ETV
vector 91 TaxiNetwork.node[140] visitedPerTimestep ETV
vector 92 TaxiNetwork.node[2] visitedPerTimestep ETV
vector 93 TaxiNetwork.node[84] visitedPerTimestep ETV
vector 94 TaxiNetwork.node[45] visitedPerTimestep ETV
vector 95 TaxiNetwork.node[32] visitedPerTimestep ETV
vector 96 TaxiNetwork.node[33] visitedPerTimestep ETV
vector 97 TaxiNetwork.node[139] visitedPerTimestep ETV
vector 98 TaxiNetwork.node[46] visitedPerTimestep ETV
vector 99 TaxiNetwork.node[0] visitedPerTimestep ETV
vector 100 TaxiNetwork.node[144] visitedPerTimestep ETV
vector 101 TaxiNetwork.node[49] visitedPerTimestep ETV
vector 102 TaxiNetwork.node[47] visitedPerTimestep ETV
vector 103 TaxiNetwork.node[118] visitedPerTimestep ETV
vector 104 TaxiNetwork.node[40] visitedPerTimestep ETV
vector 105 TaxiNetwork.node[29] visitedPerTimestep ETV
vector 106 TaxiNetwork.node[9] visitedPerTimestep ETV
vector 107 TaxiNetwork.node[18] visitedPerTimestep ETV
vector 108 TaxiNetwork.node[57] visitedPerTimestep ETV
vector 109 TaxiNetwork.node[13] visitedPerTimestep ETV
vector 110 TaxiNetwork.node[94] visitedPerTimestep ETV
vector 111 TaxiNetwork.node[111] visitedPerTimestep ETV
vector 112 TaxiNetwork.node[116] visitedPerTimestep ETV
vector 113 TaxiNetwork.node[86] visitedPerTimestep ETV
vector 114 TaxiNetwork.node[22] visitedPerTimestep ETV
vector 115 TaxiNetwork.node[102] visitedPerTimestep ETV
vector 116 TaxiNetwork.node[4] visitedPerTimestep ETV
vector 117 TaxiNetwork.node[15] visitedPerTimestep ETV
vector 118 TaxiNetwork.node[106] visitedPerTimestep ETV
vector 119 TaxiNetwork.node[112] visitedPerTimestep ETV
vector 120 TaxiNetwork.node[114] visitedPerTimestep ETV
vector 121 TaxiNetwork.node[103] visitedPerTimestep ETV
vector 122 TaxiNetwork.node[28] visitedPerTimestep ETV
vector 123 TaxiNetwork.node[113] visitedPerTimestep ETV
vector 124 TaxiNetwork.node[58] visitedPerTimestep ETV
vector 125 TaxiNetwork.node[59] visitedPerTimestep ETV
vector 126 TaxiNetwork.node[76] visitedPerTimestep ETV
vector 127 TaxiNetwork.node[71] visitedPerTimestep ETV
vector 128 TaxiNetwork.node[48] visitedPerTimestep ETV
vector 129 TaxiNetwork.node[136] visitedPerTimestep ETV
vector 130 TaxiNetwork.node[109] visitedPerTimestep ETV
vector 131 TaxiNetwork.node[108] visitedPerTimestep ETV
vector 132 TaxiNetwork.node[38] visitedPerTimestep ETV
vector 133 TaxiNetwork.node[25] visitedPerTimestep ETV
vector 134 TaxiNetwork.node[41] visitedPerTimestep ETV
vector 135 TaxiNetwork.node[43] visitedPerTimestep ETV
vector 136 TaxiNetwork.node[42] visitedPerTimestep ETV
vector 137 TaxiNetwork.node[75] visitedPerTimestep ETV
vector 138 TaxiNetwork.node[135] visitedPerTimestep ETV
0	1	0	1
0	36	0	28
0	179	0	79
0	510	0	122
0	528	0	122
0	612	0	122
0	626	0	123
0	628	0	123
0	631	0	123
0	658	0	124
0	765	0	126
0	770	0	126
0	987	0	130
0	1014	0	130
0	1204	0	131
0	1212	0	131
0	1390	0	131
0	1448	0	131
0	1716	0	131
0	1848	0	131
0	1968	0	131
0	1976	0	131
0	2094	0	132
0	2292	0	141
0	2404	0	142
0	2574	0	143
0	2806	0	144
0	2834	0	144
0	3168	0	144
0	3940	0	144
0	4056	0	144
0	4084	0	144
0	4160	0	144
0	4236	0	144
0	4244	0	144
0	4388	0	144
0	4436	0	144
0	4728	0	144
0	4812	0	144
0	5044	0	144
0	5340	0	144
0	5352	0	144
0	5412	0	144
0	6020	0	144
0	6048	0	144
0	6296	0	144
0	6728	0	144
0	6736	0	144
1	2	0	2
1	316	0	109
1	324	0	112
1	351	0	114
1	690	0	124
1	885	0	128
1	958	0	130
1	1392	0	131
1	1706	0	131
1	2358	0	142
1	2632	0	143
1	2714	0	143
1	2838	0	144
1	3348	0	144
1	3624	0	144
1	4484	0	144
1	4568	0	144
1	4656	0	144
1	6480	0	144
1	6628	0	144
2	3	0	3
2	25	0	20
2	125	0	54
2	180	0	79
2	182	0	80
2	744	0	124
2	847	0	126
2	2100	0	132
2	2258	0	139
2	2568	0	143
2	3352	0	144
2	3432	0	144
2	3440	0	144
2	3620	0	144
2	3848	0	144
2	3856	0	144
2	4308	0	144
2	6024	0	144
2	6632	0	144
3	4	0	4
3	38	0	29
3	74	0	47
3	130	0	54
3	671	0	124
3	743	0	124
3	838	0	126
3	864	0	128
3	1162	0	131
3	1186	0	131
3	1952	0	131
3	2362	0	142
3	2622	0	143
3	2792	0	144
3	2804	0	144
3	3360	0	144
3	3484	0	144
3	4248	0	144
3	5336	0	144
3	6032	0	144
3	7000	0	144
4	5	0	5
4	39	0	29
4	44	0	32
4	89	0	49
4	95	0	50
4	98	0	50
4	105	0	51
4	109	0	51
4	118	0	52
4	128	0	54
4	768	0	126
4	1172	0	131
4	1196	0	131
4	1852	0	131
4	1912	0	131
4	2102	0	132
4	2598	0	143
4	2606	0	143
4	2846	0	144
4	3572	0	144
4	3604	0	144
4	6952	0	144
4	6984	0	144
5	6	0	6
5	101	0	50
5	112	0	51
5	851	0	126
5	853	0	126
5	1190	0	131
5	2854	0	144
5	3592	0	144
5	6972	0	144
6	7	0	7
6	45	0	32
6	85	0	49
6	100	0	50
6	138	0	54
6	843	0	126
6	849	0	126
6	1188	0	131
6	1452	0	131
6	1916	0	131
6	2264	0	139
6	3420	0	144
6	3508	0	144
6	6040	0	144
7	8	0	8
7	873	0	128
7	1874	0	131
7	3496	0	144
8	9	0	9
8	49	0	32
8	90	0	49
8	104	0	51
8	140	0	54
8	850	0	126
8	852	0	126
8	1124	0	131
8	1872	0	131
8	1878	0	131
8	1882	0	131
8	2270	0	139
8	4292	0	144
8	6980	0	144
9	10	0	10
9	844	0	126
9	860	0	128
9	1102	0	131
9	1922	0	131
9	2276	0	139
9	3516	0	144
9	3596	0	144
9	4296	0	144
10	11	0	11
10	48	0	32
10	87	0	49
10	129	0	54
10	845	0	126
10	867	0	128
10	1098	0	131
10	1106	0	131
10	1930	0	131
10	1958	0	131
10	1962	0	131
10	3356	0	144
10	3520	0	144
10	3564	0	144
10	4304	0	144
10	6928	0	144
10	6956	0	144
11	12	0	12
11	21	0	20
11	23	0	20
11	26	0	20
11	82	0	49
11	86	0	49
11	96	0	50
11	119	0	52
11	1454	0	131
11	1458	0	131
11	1858	0	131
11	2798	0	144
11	3392	0	144
11	5320	0	144
11	6036	0	144
11	6960	0	144
11	6968	0	144
12	13	0	13
12	83	0	49
12	88	0	49
12	97	0	50
12	846	0	126
12	877	0	128
12	1126	0	131
12	1924	0	131
12	2268	0	139
12	2280	0	139
12	2852	0	144
12	3548	0	144
12	3616	0	144
12	6320	0	144
13	14	0	14
13	27	0	20
13	76	0	47
13	80	0	49
13	91	0	49
13	111	0	51
13	113	0	51
13	136	0	54
13	840	0	126
13	874	0	128
13	1194	0	131
13	1860	0	131
13	1870	0	131
13	1918	0	131
13	1964	0	131
13	2106	0	132
13	2620	0	143
13	3388	0	144
13	3400	0	144
13	3488	0	144
13	3512	0	144
13	3556	0	144
13	4272	0	144
13	4288	0	144
13	6996	0	144
14	15	0	15
14	24	0	20
14	47	0	32
14	99	0	50
14	143	0	54
14	343	0	114
14	669	0	124
14	769	0	126
14	839	0	126
14	1174	0	131
14	1178	0	131
14	1850	0	131
14	1854	0	131
14	1926	0	131
14	3368	0	144
14	3424	0	144
14	3528	0	144
14	6924	0	144
15	16	0	16
15	123	0	53
15	746	0	124
15	856	0	128
15	1864	0	131
15	2626	0	143
15	2800	0	144
15	3832	0	144
15	5324	0	144
16	17	0	17
16	22	0	20
16	629	0	123
16	836	0	126
16	1160	0	131
16	1932	0	131
16	2210	0	139
16	2570	0	143
16	2628	0	143
16	3380	0	144
16	3552	0	144
16	5328	0	144
16	6340	0	144
16	6916	0	144
17	18	0	18
17	46	0	32
17	92	0	49
17	102	0	50
17	120	0	52
17	122	0	53
17	857	0	128
17	859	0	128
17	1100	0	131
17	1104	0	131
17	1118	0	131
17	1122	0	131
17	1182	0	131
17	1862	0	131
17	2610	0	143
17	2848	0	144
17	3544	0	144
17	3560	0	144
17	3836	0	144
17	4300	0	144
17	6328	0	144
17	6988	0	144
18	19	0	19
18	142	0	54
18	837	0	126
18	842	0	126
18	1108	0	131
18	1116	0	131
18	1168	0	131
18	1880	0	131
18	2282	0	139
18	3524	0	144
18	5332	0	144
18	6336	0	144
19	20	0	20
19	78	0	48
19	116	0	51
19	848	0	126
19	1868	0	131
19	1920	0	131
19	1956	0	131
19	2566	0	143
19	2794	0	144
19	3600	0	144
19	3828	0	144
19	3844	0	144
19	3852	0	144
19	6920	0	144
19	6936	0	144
20	28	0	21
20	139	0	54
20	141	0	54
20	340	0	114
20	841	0	126
20	1114	0	131
20	1914	0	131
20	2602	0	143
20	3412	0	144
20	3576	0	144
20	3608	0	144
21	29	0	22
21	54	0	35
21	223	0	94
21	310	0	109
21	385	0	117
21	394	0	118
21	696	0	124
21	734	0	124
21	767	0	126
21	783	0	126
21	991	0	130
21	1130	0	131
21	1226	0	131
21	1744	0	131
21	1902	0	131
21	1910	0	131
21	2036	0	131
21	2042	0	131
21	2110	0	132
21	2202	0	139
21	3184	0	144
21	3888	0	144
21	4700	0	144
21	4724	0	144
21	6100	0	144
21	6264	0	144
22	30	0	23
22	72	0	47
22	183	0	80
22	214	0	92
22	239	0	99
22	381	0	117
22	416	0	118
22	453	0	121
22	673	0	124
22	742	0	124
22	795	0	126
22	886	0	128
22	952	0	130
22	1080	0	131
22	1294	0	131
22	2208	0	139
22	2340	0	142
22	2364	0	142
22	2396	0	142
22	2840	0	144
22	3960	0	144
22	4060	0	144
22	4420	0	144
22	4464	0	144
22	4936	0	144
22	5420	0	144
22	5760	0	144
22	6908	0	144
23	31	0	24
23	216	0	92
23	220	0	94
23	668	0	124
23	899	0	130
23	992	0	130
23	1230	0	131
23	1672	0	131
23	1714	0	131
23	1718	0	131
23	1888	0	131
23	2212	0	139
23	2436	0	142
23	2556	0	143
23	2656	0	143
23	2958	0	144
23	3132	0	144
23	3192	0	144
23	3200	0	144
23	3664	0	144
23	3728	0	144
23	4080	0	144
23	4100	0	144
23	4116	0	144
23	4356	0	144
23	4472	0	144
23	4692	0	144
23	4848	0	144
23	6268	0	144
23	6304	0	144
23	6312	0	144
23	6380	0	144
23	6440	0	144
23	7016	0	144
24	32	0	25
24	67	0	43
24	217	0	92
24	335	0	114
24	406	0	118
24	411	0	118
24	526	0	122
24	535	0	122
24	544	0	122
24	664	0	124
24	737	0	124
24	1044	0	130
24	1058	0	130
24	1228	0	131
24	1332	0	131
24	1428	0	131
24	1678	0	131
24	2066	0	132
24	2390	0	142
24	2892	0	144
24	3224	0	144
24	4404	0	144
24	4572	0	144
24	4920	0	144
24	5064	0	144
24	5136	0	144
24	5256	0	144
24	5280	0	144
24	5736	0	144
24	5764	0	144
24	5904	0	144
24	5992	0	144
24	6124	0	144
24	6680	0	144
25	33	0	26
25	293	0	106
25	309	0	109
25	349	0	114
25	356	0	114
25	380	0	117
25	667	0	124
25	740	0	124
25	786	0	126
25	801	0	126
25	960	0	130
25	962	0	130
25	995	0	130
25	1352	0	131
25	1632	0	131
25	1720	0	131
25	1890	0	131
25	1970	0	131
25	2138	0	132
25	2204	0	139
25	2306	0	142
25	2512	0	143
25	2594	0	143
25	2650	0	143
25	2670	0	143
25	2842	0	144
25	3000	0	144
25	3112	0	144
25	4384	0	144
25	4660	0	144
25	4828	0	144
25	5116	0	144
25	5216	0	144
25	6012	0	144
25	6256	0	144
25	6688	0	144
26	34	0	27
26	66	0	43
26	178	0	79
26	225	0	95
26	375	0	116
26	384	0	117
26	413	0	118
26	460	0	121
26	576	0	122
26	591	0	122
26	775	0	126
26	947	0	130
26	976	0	130
26	993	0	130
26	1062	0	130
26	1202	0	131
26	1274	0	131
26	1474	0	131
26	1570	0	131
26	1628	0	131
26	1670	0	131
26	2062	0	132
26	2090	0	132
26	2190	0	139
26	2342	0	142
26	2410	0	142
26	2822	0	144
26	4128	0	144
26	4680	0	144
26	4956	0	144
26	5248	0	144
26	5652	0	144
26	5972	0	144
26	6580	0	144
27	35	0	28
27	196	0	84
27	412	0	118
27	422	0	118
27	485	0	121
27	506	0	121
27	508	0	121
27	520	0	122
27	523	0	122
27	704	0	124
27	707	0	124
27	710	0	124
27	720	0	124
27	829	0	126
27	969	0	130
27	978	0	130
27	980	0	130
27	998	0	130
27	1012	0	130
27	1486	0	131
27	1638	0	131
27	1702	0	131
27	1834	0	131
27	1986	0	131
27	2158	0	135
27	2220	0	139
27	2238	0	139
27	2252	0	139
27	2424	0	142
27	2466	0	142
27	2824	0	144
27	3012	0	144
27	3024	0	144
27	3124	0	144
27	3912	0	144
27	4044	0	144
27	4372	0	144
27	4460	0	144
27	4604	0	144
27	5500	0	144
27	5516	0	144
27	6724	0	144
27	6732	0	144
28	37	0	29
28	107	0	51
28	835	0	126
28	863	0	128
28	868	0	128
28	1184	0	131
28	2608	0	143
28	2860	0	144
28	3376	0	144
28	3840	0	144
28	5416	0	144
28	6348	0	144
29	40	0	30
29	43	0	32
29	50	0	32
29	75	0	47
29	84	0	49
29	110	0	51
29	114	0	51
29	137	0	54
29	878	0	128
29	1166	0	131
29	1884	0	131
29	3404	0	144
29	4264	0	144
29	6716	0	144
29	6964	0	144
30	41	0	31
30	73	0	47
30	108	0	51
30	115	0	51
30	344	0	114
30	866	0	128
30	870	0	128
30	1158	0	131
30	1180	0	131
30	1450	0	131
30	1954	0	131
30	2262	0	139
30	2266	0	139
30	2286	0	141
30	2600	0	143
30	3364	0	144
30	3896	0	144
30	4468	0	144
30	6028	0	144
30	6044	0	144
30	6316	0	144
30	6940	0	144
30	6992	0	144
31	42	0	32
31	106	0	51
31	126	0	54
31	355	0	114
31	454	0	121
31	672	0	124
31	865	0	128
31	959	0	130
31	1176	0	131
31	1460	0	131
31	1886	0	131
31	1950	0	131
31	2260	0	139
31	2562	0	143
31	2596	0	143
31	2630	0	143
31	2796	0	144
31	3436	0	144
31	3476	0	144
31	3532	0	144
31	3824	0	144
31	6912	0	144
32	51	0	33
32	65	0	43
32	144	0	54
32	207	0	90
32	222	0	94
32	334	0	114
32	339	0	114
32	345	0	114
32	354	0	114
32	452	0	121
32	638	0	123
32	1134	0	131
32	1156	0	131
32	1462	0	131
32	2038	0	131
32	2160	0	136
32	2300	0	141
32	2304	0	142
32	2560	0	143
32	2844	0	144
32	3048	0	144
32	3060	0	144
32	3688	0	144
32	3708	0	144
32	4344	0	144
32	4844	0	144
33	52	0	34
33	159	0	65
33	280	0	104
33	294	0	106
33	402	0	118
33	461	0	121
33	610	0	122
33	716	0	124
33	782	0	126
33	884	0	128
33	953	0	130
33	1288	0	131
33	1682	0	131
33	1686	0	131
33	1990	0	131
33	2206	0	139
33	2370	0	142
33	2394	0	142
33	2444	0	142
33	2576	0	143
33	2866	0	144
33	2884	0	144
33	3180	0	144
33	3692	0	144
33	4144	0	144
33	4396	0	144
33	4536	0	144
33	4576	0	144
33	4940	0	144
33	4992	0	144
33	5080	0	144
33	5272	0	144
33	5360	0	144
33	5664	0	144
33	6464	0	144
33	6540	0	144
33	6904	0	144
34	53	0	35
34	153	0	62
34	230	0	97
34	232	0	97
34	284	0	104
34	546	0	122
34	592	0	122
34	607	0	122
34	625	0	123
34	665	0	124
34	736	0	124
34	986	0	130
34	1154	0	131
34	1302	0	131
34	1518	0	131
34	1616	0	131
34	1894	0	131
34	2002	0	131
34	2230	0	139
34	2384	0	142
34	2416	0	142
34	2878	0	144
34	2964	0	144
34	3068	0	144
34	4872	0	144
34	5092	0	144
34	5140	0	144
34	5592	0	144
34	5604	0	144
34	5752	0	144
34	6004	0	144
34	6220	0	144
34	6596	0	144
34	6788	0	144
34	6852	0	144
35	55	0	36
35	258	0	100
35	399	0	118
35	403	0	118
35	471	0	121
35	674	0	124
35	733	0	124
35	788	0	126
35	970	0	130
35	985	0	130
35	1068	0	130
35	1432	0	131
35	1534	0	131
35	1630	0	131
35	1994	0	131
35	2470	0	142
35	2890	0	144
35	2966	0	144
35	3044	0	144
35	3700	0	144
35	3788	0	144
35	4096	0	144
35	4732	0	144
35	5660	0	144
35	5840	0	144
35	5952	0	144
35	6376	0	144
35	6388	0	144
35	6588	0	144
35	7024	0	144
36	56	0	37
36	154	0	62
36	161	0	66
36	226	0	95
36	281	0	104
36	500	0	121
36	512	0	122
36	545	0	122
36	698	0	124
36	731	0	124
36	928	0	130
36	1000	0	130
36	1340	0	131
36	1442	0	131
36	2194	0	139
36	2240	0	139
36	2460	0	142
36	2504	0	143
36	2544	0	143
36	2580	0	143
36	2584	0	143
36	2654	0	143
36	2674	0	143
36	2896	0	144
36	2916	0	144
36	3040	0	144
36	3720	0	144
36	3920	0	144
36	4360	0	144
36	4368	0	144
36	4492	0	144
36	5032	0	144
36	5212	0	144
36	5288	0	144
36	5308	0	144
36	5716	0	144
36	5832	0	144
36	6156	0	144
36	6548	0	144
36	6764	0	144
37	57	0	38
37	59	0	39
37	64	0	43
37	296	0	107
37	303	0	108
37	346	0	114
37	450	0	121
37	530	0	122
37	577	0	122
37	676	0	124
37	781	0	126
37	926	0	130
37	933	0	130
37	1138	0	131
37	1240	0	131
37	1244	0	131
37	1276	0	131
37	1480	0	131
37	1490	0	131
37	1514	0	131
37	1696	0	131
37	4016	0	144
37	4120	0	144
37	4204	0	144
37	4560	0	144
37	4772	0	144
37	4824	0	144
37	6060	0	144
37	6444	0	144
37	6772	0	144
37	6896	0	144
38	58	0	39
38	277	0	103
38	446	0	121
38	484	0	121
38	570	0	122
38	581	0	122
38	583	0	122
38	677	0	124
38	942	0	130
38	956	0	130
38	1018	0	130
38	1640	0	131
38	1676	0	131
38	2170	0	139
38	2184	0	139
38	2468	0	142
38	3096	0	144
38	3256	0	144
38	3776	0	144
38	5068	0	144
38	5284	0	144
38	5864	0	144
38	5880	0	144
38	5888	0	144
38	6860	0	144
39	60	0	40
39	397	0	118
39	415	0	118
39	457	0	121
39	531	0	122
39	575	0	122
39	705	0	124
39	711	0	124
39	932	0	130
39	1560	0	131
39	2048	0	131
39	2316	0	142
39	2474	0	142
39	2694	0	143
39	3072	0	144
39	3144	0	144
39	3160	0	144
39	3188	0	144
39	4220	0	144
39	4804	0	144
39	4964	0	144
39	5600	0	144
39	6280	0	144
39	6544	0	144
39	6568	0	144
40	61	0	41
40	209	0	90
40	377	0	116
40	379	0	117
40	534	0	122
40	608	0	122
40	681	0	124
40	790	0	126
40	818	0	126
40	1270	0	131
40	1446	0	131
40	1468	0	131
40	1476	0	131
40	2014	0	131
40	2068	0	132
40	2092	0	132
40	2130	0	132
40	2178	0	139
40	2514	0	143
40	2526	0	143
40	2636	0	143
40	2646	0	143
40	2826	0	144
40	2898	0	144
40	3676	0	144
40	4040	0	144
40	4332	0	144
40	4688	0	144
40	4816	0	144
40	5144	0	144
40	6008	0	144
40	6492	0	144
40	6828	0	144
40	6844	0	144
41	62	0	42
41	221	0	94
41	312	0	109
41	332	0	114
41	336	0	114
41	352	0	114
41	418	0	118
41	441	0	120
41	525	0	122
41	641	0	123
41	785	0	126
41	804	0	126
41	900	0	130
41	943	0	130
41	994	0	130
41	1040	0	130
41	1214	0	131
41	1264	0	131
41	1280	0	131
41	1410	0	131
41	1624	0	131
41	1794	0	131
41	1838	0	131
41	1940	0	131
41	2128	0	132
41	2136	0	132
41	2218	0	139
41	2294	0	141
41	2382	0	142
41	2438	0	142
41	2648	0	143
41	2652	0	143
41	2770	0	144
41	4148	0	144
41	4164	0	144
41	4172	0	144
41	4764	0	144
41	5112	0	144
41	5496	0	144
41	5908	0	144
41	5920	0	144
41	5984	0	144
41	6452	0	144
41	6496	0	144
41	6576	0	144
41	6652	0	144
41	6740	0	144
41	6756	0	144
41	6832	0	144
42	63	0	43
42	760	0	125
42	763	0	126
42	1146	0	131
42	1268	0	131
42	1286	0	131
42	1348	0	131
42	1610	0	131
42	1614	0	131
42	2132	0	132
42	2516	0	143
42	2524	0	143
42	2776	0	144
42	2784	0	144
42	3816	0	144
42	3868	0	144
42	4532	0	144
42	5040	0	144
42	6164	0	144
42	6612	0	144
42	6660	0	144
42	6880	0	144
43	68	0	44
43	235	0	97
43	307	0	109
43	322	0	111
43	437	0	118
43	445	0	121
43	632	0	123
43	699	0	124
43	771	0	126
43	827	0	126
43	925	0	130
43	1238	0	131
43	1334	0	131
43	1396	0	131
43	2592	0	143
43	2980	0	144
43	3740	0	144
43	3956	0	144
43	4240	0	144
43	4476	0	144
43	5408	0	144
43	5560	0	144
43	5704	0	144
43	5712	0	144
43	5744	0	144
43	5800	0	144
43	5872	0	144
43	6172	0	144
43	6520	0	144
43	6668	0	144
43	6776	0	144
43	6796	0	144
44	69	0	45
44	443	0	120
44	691	0	124
44	752	0	125
44	1408	0	131
44	1412	0	131
44	1502	0	131
44	1724	0	131
44	1788	0	131
44	1796	0	131
44	2440	0	142
44	3464	0	144
44	6188	0	144
44	6524	0	144
44	6656	0	144
45	70	0	46
45	212	0	91
45	308	0	109
45	331	0	114
45	370	0	116
45	431	0	118
45	440	0	120
45	580	0	122
45	660	0	124
45	756	0	125
45	833	0	126
45	975	0	130
45	1066	0	130
45	1338	0	131
45	1690	0	131
45	1730	0	131
45	1798	0	131
45	1842	0	131
45	1936	0	131
45	2074	0	132
45	2186	0	139
45	2328	0	142
45	2402	0	142
45	2868	0	144
45	3176	0	144
45	3916	0	144
45	3972	0	144
45	3996	0	144
45	4024	0	144
45	4400	0	144
45	4424	0	144
45	4528	0	144
45	5252	0	144
45	5428	0	144
45	5488	0	144
45	5728	0	144
45	5816	0	144
45	6052	0	144
45	6092	0	144
45	6420	0	144
45	6864	0	144
45	6872	0	144
46	71	0	47
46	189	0	82
46	313	0	109
46	436	0	118
46	459	0	121
46	559	0	122
46	582	0	122
46	712	0	124
46	929	0	130
46	1246	0	131
46	1296	0	131
46	1346	0	131
46	1908	0	131
46	2064	0	132
46	2112	0	132
46	2216	0	139
46	2446	0	142
46	2534	0	143
46	2820	0	144
46	2870	0	144
46	3036	0	144
46	3076	0	144
46	3108	0	144
46	3872	0	144
46	3948	0	144
46	4708	0	144
46	4720	0	144
46	4860	0	144
46	4876	0	144
46	5180	0	144
46	5348	0	144
46	5432	0	144
46	5484	0	144
46	5524	0	144
46	5868	0	144
46	5924	0	144
46	6292	0	144
46	6432	0	144
46	6508	0	144
46	6684	0	144
46	6804	0	144
47	77	0	48
47	81	0	49
47	93	0	49
47	342	0	114
47	862	0	128
47	871	0	128
47	1164	0	131
47	1856	0	131
47	1876	0	131
47	2104	0	132
47	2604	0	143
47	2614	0	143
47	2858	0	144
47	3384	0	144
47	3492	0	144
47	3584	0	144
47	4252	0	144
47	4268	0	144
47	6944	0	144
48	79	0	49
48	858	0	128
48	876	0	128
48	1120	0	131
48	1456	0	131
48	2274	0	139
48	2618	0	143
48	3396	0	144
48	3588	0	144
49	94	0	50
49	341	0	114
49	1112	0	131
49	2108	0	132
49	3408	0	144
49	3416	0	144
49	3580	0	144
49	3612	0	144
49	4256	0	144
49	6712	0	144
49	6948	0	144
50	103	0	51
50	861	0	128
50	1192	0	131
50	2272	0	139
50	2278	0	139
50	3504	0	144
50	4284	0	144
50	6324	0	144
50	6976	0	144
51	117	0	52
51	127	0	54
51	131	0	54
51	135	0	54
51	670	0	124
51	745	0	124
51	869	0	128
51	1170	0	131
51	1928	0	131
51	1960	0	131
51	1966	0	131
51	2096	0	132
51	2284	0	140
51	2564	0	143
51	2850	0	144
51	2862	0	144
51	3428	0	144
51	3480	0	144
51	3540	0	144
51	3568	0	144
52	121	0	53
52	133	0	54
53	124	0	54
53	132	0	54
53	134	0	54
53	747	0	124
53	1866	0	131
53	2624	0	143
53	2802	0	144
54	145	0	55
54	1110	0	131
54	1128	0	131
54	1198	0	131
54	1740	0	131
54	1756	0	131
54	3892	0	144
54	3900	0	144
54	4072	0	144
54	4260	0	144
54	6708	0	144
55	146	0	56
55	231	0	97
55	238	0	99
55	400	0	118
55	429	0	118
55	469	0	121
55	594	0	122
55	627	0	123
55	683	0	124
55	800	0	126
55	951	0	130
55	1386	0	131
55	1522	0	131
55	1604	0	131
55	1626	0	131
55	1754	0	131
55	2326	0	142
55	2422	0	142
55	2546	0	143
55	2962	0	144
55	3220	0	144
55	3684	0	144
55	3936	0	144
55	4192	0	144
55	4456	0	144
55	5052	0	144
55	5220	0	144
55	5808	0	144
56	147	0	57
56	208	0	90
56	448	0	121
56	521	0	122
56	543	0	122
56	1046	0	130
56	1232	0	131
56	1704	0	131
56	1836	0	131
56	2006	0	131
56	2188	0	139
56	2234	0	139
56	2314	0	142
56	2318	0	142
56	2380	0	142
56	2542	0	143
56	2696	0	143
56	3628	0	144
56	3656	0	144
56	4224	0	144
56	4648	0	144
56	4704	0	144
56	6072	0	144
56	6116	0	144
56	6368	0	144
56	6584	0	144
56	6760	0	144
57	148	0	58
57	254	0	100
57	292	0	106
57	299	0	108
57	301	0	108
57	328	0	114
57	330	0	114
57	337	0	114
57	409	0	118
57	414	0	118
57	433	0	118
57	686	0	124
57	721	0	124
57	777	0	126
57	784	0	126
57	791	0	126
57	966	0	130
57	1140	0	131
57	1216	0	131
57	1248	0	131
57	1520	0	131
57	1642	0	131
57	1984	0	131
57	2296	0	141
57	2388	0	142
57	2972	0	144
57	2976	0	144
57	3216	0	144
57	4152	0	144
57	4200	0	144
57	4408	0	144
57	4512	0	144
57	4620	0	144
57	4752	0	144
57	4960	0	144
57	5152	0	144
57	5184	0	144
57	5236	0	144
57	5368	0	144
57	5436	0	144
57	5504	0	144
57	5596	0	144
57	5768	0	144
57	6148	0	144
57	6384	0	144
57	6436	0	144
57	6648	0	144
57	6784	0	144
58	149	0	59
58	373	0	116
58	532	0	122
58	1250	0	131
58	1582	0	131
58	2476	0	142
58	2500	0	143
58	2682	0	143
58	2692	0	143
59	150	0	60
59	241	0	99
59	311	0	109
59	451	0	121
59	548	0	122
59	558	0	122
59	702	0	124
59	803	0	126
59	830	0	126
59	1042	0	130
59	1074	0	130
59	1584	0	131
59	1622	0	131
59	1634	0	131
59	1710	0	131
59	1742	0	131
59	2000	0	131
59	2164	0	137
59	2290	0	141
59	2346	0	142
59	2408	0	142
59	2418	0	142
59	2832	0	144
59	2872	0	144
59	3140	0	144
59	3964	0	144
59	4208	0	144
59	4596	0	144
59	4892	0	144
59	5020	0	144
59	5380	0	144
59	5388	0	144
59	6248	0	144
59	6392	0	144
60	151	0	61
60	158	0	65
60	256	0	100
60	286	0	104
60	458	0	121
60	470	0	121
60	499	0	121
60	566	0	122
60	719	0	124
60	778	0	126
60	806	0	126
60	817	0	126
60	1020	0	130
60	1306	0	131
60	1358	0	131
60	1434	0	131
60	1572	0	131
60	1748	0	131
60	2430	0	142
60	2818	0	144
60	3120	0	144
60	3680	0	144
60	3696	0	144
60	4916	0	144
60	5480	0	144
60	5720	0	144
60	6504	0	144
61	152	0	62
61	177	0	79
61	190	0	82
61	243	0	99
61	251	0	99
61	321	0	111
61	387	0	117
61	497	0	121
61	563	0	122
61	565	0	122
61	623	0	123
61	633	0	123
61	902	0	130
61	973	0	130
61	1002	0	130
61	1330	0	131
61	1440	0	131
61	1532	0	131
61	1736	0	131
61	2052	0	131
61	2344	0	142
61	2412	0	142
61	2464	0	142
61	2666	0	143
61	2876	0	144
61	2894	0	144
61	2922	0	144
61	2978	0	144
61	2982	0	144
61	3016	0	144
61	3028	0	144
61	3084	0	144
61	4608	0	144
61	5060	0	144
61	5668	0	144
61	5892	0	144
62	155	0	63
62	197	0	84
62	393	0	118
62	396	0	118
62	425	0	118
62	467	0	121
62	511	0	122
62	519	0	122
62	695	0	124
62	708	0	124
62	766	0	126
62	792	0	126
62	988	0	130
62	1342	0	131
62	1558	0	131
62	1692	0	131
62	1734	0	131
62	1844	0	131
62	1906	0	131
62	1978	0	131
62	2156	0	134
62	2348	0	142
62	2368	0	142
62	2378	0	142
62	2552	0	143
62	3052	0	144
62	5100	0	144
62	5120	0	144
62	6016	0	144
63	156	0	64
63	229	0	97
63	427	0	118
63	503	0	121
63	547	0	122
63	574	0	122
63	622	0	123
63	635	0	123
63	723	0	124
63	779	0	126
63	940	0	130
63	961	0	130
63	968	0	130
63	990	0	130
63	1060	0	130
63	1292	0	131
63	1356	0	131
63	1592	0	131
63	1732	0	131
63	1762	0	131
63	1900	0	131
63	1988	0	131
63	1992	0	131
63	1998	0	131
63	2040	0	131
63	2088	0	132
63	2182	0	139
63	2222	0	139
63	2250	0	139
63	2320	0	142
63	2374	0	142
63	2554	0	143
63	2716	0	143
63	2882	0	144
63	2970	0	144
63	3156	0	144
63	3212	0	144
63	3668	0	144
63	4052	0	144
63	4156	0	144
63	4616	0	144
63	4888	0	144
63	5264	0	144
63	5400	0	144
64	157	0	65
64	188	0	82
64	302	0	108
64	318	0	110
64	368	0	116
64	468	0	121
64	472	0	121
64	542	0	122
64	662	0	124
64	759	0	125
64	898	0	130
64	914	0	130
64	949	0	130
64	957	0	130
64	981	0	130
64	1256	0	131
64	1388	0	131
64	1598	0	131
64	1760	0	131
64	1832	0	131
64	1846	0	131
64	2214	0	139
64	2248	0	139
64	2352	0	142
64	2510	0	143
64	2762	0	144
64	2920	0	144
64	3116	0	144
64	3196	0	144
64	3632	0	144
64	3908	0	144
64	4132	0	144
64	4140	0	144
64	4228	0	144
64	4736	0	144
64	5028	0	144
64	5076	0	144
64	5748	0	144
64	5980	0	144
64	6272	0	144
65	160	0	66
65	305	0	108
65	541	0	122
65	573	0	122
65	636	0	123
65	901	0	130
65	1424	0	131
65	1588	0	131
65	1612	0	131
65	2028	0	131
65	2174	0	139
65	2520	0	143
65	2880	0	144
65	3252	0	144
65	3448	0	144
65	3724	0	144
65	3864	0	144
65	3944	0	144
65	4004	0	144
65	4328	0	144
65	4832	0	144
65	6000	0	144
65	6160	0	144
65	6600	0	144
66	162	0	67
66	193	0	84
66	195	0	84
66	244	0	99
66	255	0	100
66	479	0	121
66	486	0	121
66	601	0	122
66	729	0	124
66	807	0	126
66	1328	0	131
66	1366	0	131
66	1378	0	131
66	1438	0	131
66	1554	0	131
66	1816	0	131
66	1982	0	131
66	2116	0	132
66	2426	0	142
66	2452	0	142
66	2462	0	142
66	2992	0	144
66	4908	0	144
66	5240	0	144
66	5300	0	144
66	5452	0	144
66	5620	0	144
66	7032	0	144
66	7048	0	144
67	163	0	68
67	361	0	114
67	482	0	121
67	515	0	122
67	585	0	122
67	811	0	126
67	908	0	130
67	1032	0	130
67	1316	0	131
67	1326	0	131
67	1362	0	131
67	1370	0	131
67	1374	0	131
67	1656	0	131
67	1818	0	131
67	2904	0	144
67	2910	0	144
67	2940	0	144
67	2988	0	144
67	4788	0	144
67	7080	0	145
68	164	0	69
68	259	0	100
68	291	0	106
68	464	0	121
68	586	0	122
68	603	0	122
68	815	0	126
68	909	0	130
68	911	0	130
68	1006	0	130
68	1026	0	130
68	1320	0	131
68	1360	0	131
68	1368	0	131
68	1556	0	131
68	1580	0	131
68	2146	0	134
68	2502	0	143
68	2680	0	143
68	2722	0	143
68	2930	0	144
68	3924	0	144
68	4548	0	144
68	4748	0	144
68	4948	0	144
68	5464	0	144
68	5932	0	144
68	6560	0	144
69	165	0	70
69	363	0	115
69	517	0	122
69	727	0	124
69	813	0	126
69	1310	0	131
69	1314	0	131
69	1376	0	131
69	1810	0	131
69	2946	0	144
69	2986	0	144
69	4912	0	144
69	5856	0	144
70	166	0	71
70	364	0	115
70	390	0	117
70	587	0	122
70	1322	0	131
70	1578	0	131
70	1660	0	131
70	2936	0	144
71	167	0	72
71	169	0	73
71	171	0	74
71	248	0	99
71	553	0	122
71	555	0	122
71	616	0	122
71	904	0	130
71	906	0	130
71	910	0	130
71	1024	0	130
71	1364	0	131
71	1550	0	131
71	1654	0	131
71	2080	0	132
71	2902	0	144
71	5012	0	144
71	5476	0	144
71	7056	0	144
72	168	0	73
72	360	0	114
72	617	0	122
72	809	0	126
72	814	0	126
72	1324	0	131
72	1542	0	131
72	1658	0	131
72	2906	0	144
72	2944	0	144
72	5008	0	144
72	5196	0	144
72	5460	0	144
72	5472	0	144
72	6556	0	144
73	170	0	74
73	198	0	84
73	300	0	108
73	320	0	111
73	359	0	114
73	365	0	115
73	481	0	121
73	564	0	122
73	569	0	122
73	945	0	130
73	1318	0	131
73	1812	0	131
73	2078	0	132
73	2724	0	143
73	5228	0	144
73	5296	0	144
73	5624	0	144
73	6552	0	144
73	7072	0	144
74	172	0	75
74	245	0	99
74	388	0	117
74	538	0	122
74	552	0	122
74	584	0	122
74	903	0	130
74	1662	0	131
74	2018	0	131
74	2124	0	132
74	2150	0	134
74	2914	0	144
74	4584	0	144
74	5004	0	144
74	5828	0	144
74	5940	0	144
75	173	0	76
75	250	0	99
75	391	0	117
75	488	0	121
75	490	0	121
75	562	0	122
75	907	0	130
75	1030	0	130
75	1036	0	130
75	1312	0	131
75	1380	0	131
75	1652	0	131
75	4544	0	144
75	4796	0	144
75	4984	0	144
75	5000	0	144
75	5468	0	144
76	174	0	77
76	374	0	116
76	408	0	118
76	533	0	122
76	604	0	122
76	941	0	130
76	1524	0	131
76	1566	0	131
76	1620	0	131
76	1752	0	131
76	1828	0	131
76	2084	0	132
76	2228	0	139
76	2454	0	142
76	2950	0	144
76	3932	0	144
76	4216	0	144
76	4452	0	144
76	4612	0	144
76	4672	0	144
76	4740	0	144
76	4884	0	144
76	4968	0	144
76	4996	0	144
76	5492	0	144
76	5648	0	144
76	5928	0	144
76	6108	0	144
76	6120	0	144
76	6128	0	144
76	6196	0	144
76	6532	0	144
76	6564	0	144
76	6856	0	144
76	6888	0	144
76	7040	0	144
77	175	0	78
77	184	0	80
77	350	0	114
77	386	0	117
77	432	0	118
77	578	0	122
77	590	0	122
77	605	0	122
77	624	0	123
77	679	0	124
77	693	0	124
77	964	0	130
77	1016	0	130
77	1082	0	131
77	1210	0	131
77	1606	0	131
77	1784	0	131
77	2298	0	141
77	2356	0	142
77	2522	0	143
77	2548	0	143
77	2658	0	143
77	2778	0	144
77	2952	0	144
77	2974	0	144
77	3660	0	144
77	4392	0	144
77	4488	0	144
77	4864	0	144
77	5404	0	144
77	5520	0	144
77	5812	0	144
77	6064	0	144
77	6080	0	144
77	6112	0	144
77	6192	0	144
77	6528	0	144
77	6748	0	144
77	6780	0	144
77	6868	0	144
78	176	0	79
78	186	0	81
78	338	0	114
78	347	0	114
78	462	0	121
78	476	0	121
78	567	0	122
78	680	0	124
78	717	0	124
78	967	0	130
78	974	0	130
78	1056	0	130
78	1142	0	131
78	1262	0	131
78	1304	0	131
78	1430	0	131
78	1594	0	131
78	2046	0	131
78	2196	0	139
78	2366	0	142
78	2376	0	142
78	3064	0	144
78	3704	0	144
78	4108	0	144
78	4348	0	144
78	4432	0	144
78	4500	0	144
78	5396	0	144
78	6284	0	144
79	181	0	80
79	2098	0	132
79	3372	0	144
79	6344	0	144
80	185	0	81
80	283	0	104
80	329	0	114
80	493	0	121
80	539	0	122
80	550	0	122
80	621	0	123
80	642	0	123
80	722	0	124
80	789	0	126
80	881	0	128
80	1028	0	130
80	1220	0	131
80	1536	0	131
80	1562	0	131
80	1618	0	131
80	1698	0	131
80	1814	0	131
80	2076	0	132
80	2148	0	134
80	2448	0	142
80	2816	0	144
80	2928	0	144
80	2932	0	144
80	3004	0	144
80	3716	0	144
80	4028	0	144
80	4184	0	144
80	4980	0	144
80	5104	0	144
80	5232	0	144
80	5268	0	144
80	5512	0	144
80	5680	0	144
80	5900	0	144
80	5960	0	144
80	6056	0	144
80	6412	0	144
80	6824	0	144
80	6840	0	144
80	6848	0	144
80	6892	0	144
81	187	0	82
81	314	0	109
81	325	0	112
81	447	0	121
81	527	0	122
81	540	0	122
81	661	0	124
81	692	0	124
81	700	0	124
81	758	0	125
81	822	0	126
81	917	0	130
81	927	0	130
81	1092	0	131
81	1708	0	131
81	1766	0	131
81	1972	0	131
81	2308	0	142
81	2472	0	142
81	2640	0	143
81	2660	0	143
81	2758	0	144
81	2782	0	144
81	3792	0	144
81	3980	0	144
81	3988	0	144
81	4232	0	144
81	4808	0	144
81	5072	0	144
81	5584	0	144
81	5884	0	144
81	5896	0	144
81	6356	0	144
81	6372	0	144
81	6396	0	144
81	6516	0	144
81	6752	0	144
82	191	0	83
82	194	0	84
82	199	0	84
82	246	0	99
82	288	0	105
82	478	0	121
82	483	0	121
82	491	0	121
82	496	0	121
82	620	0	123
82	808	0	126
82	890	0	128
82	1004	0	130
82	1552	0	131
82	2144	0	133
82	2912	0	144
82	2938	0	144
82	2942	0	144
82	3088	0	144
82	5456	0	144
83	192	0	84
83	247	0	99
83	466	0	121
83	489	0	121
83	495	0	121
83	518	0	122
83	596	0	122
83	810	0	126
83	971	0	130
83	989	0	130
83	1344	0	131
83	1372	0	131
83	1648	0	131
83	2086	0	132
83	2142	0	132
83	2224	0	139
83	2458	0	142
83	2678	0	143
83	2994	0	144
83	4180	0	144
83	4588	0	144
83	5188	0	144
83	5860	0	144
83	5936	0	144
83	7064	0	144
84	200	0	85
84	261	0	100
84	265	0	102
84	275	0	103
84	891	0	128
84	1400	0	131
84	2728	0	143
84	2748	0	144
84	2752	0	144
84	3092	0	144
84	5540	0	144
85	201	0	86
85	203	0	87
85	268	0	102
85	274	0	103
85	647	0	123
85	754	0	125
85	892	0	128
85	894	0	129
85	1404	0	131
85	2738	0	143
85	3296	0	144
86	202	0	87
86	270	0	102
86	1402	0	131
86	2730	0	143
86	2736	0	143
86	3300	0	144
86	3316	0	144
87	204	0	88
87	276	0	103
87	646	0	123
87	649	0	123
87	654	0	123
87	820	0	126
87	824	0	126
87	896	0	130
87	1088	0	131
87	1150	0	131
87	1398	0	131
87	1406	0	131
87	1726	0	131
87	2642	0	143
87	2754	0	144
87	3240	0	144
87	3248	0	144
87	3324	0	144
87	3452	0	144
87	3748	0	144
87	5548	0	144
87	5876	0	144
87	6620	0	144
88	205	0	89
88	210	0	90
88	260	0	100
88	262	0	100
88	405	0	118
88	421	0	118
88	435	0	118
88	572	0	122
88	663	0	124
88	889	0	128
88	1090	0	131
88	1470	0	131
88	1590	0	131
88	1664	0	131
88	1774	0	131
88	1782	0	131
88	2016	0	131
88	2122	0	132
88	2126	0	132
88	2168	0	139
88	2350	0	142
88	2508	0	143
88	2726	0	143
88	2888	0	144
88	2996	0	144
88	3244	0	144
88	4020	0	144
88	4944	0	144
88	5528	0	144
88	5544	0	144
88	5684	0	144
88	5732	0	144
88	6400	0	144
89	206	0	90
89	215	0	92
89	278	0	103
89	353	0	114
89	407	0	118
89	522	0	122
89	549	0	122
89	639	0	123
89	687	0	124
89	919	0	130
89	1764	0	131
89	1768	0	131
89	2026	0	131
89	2836	0	144
89	3152	0	144
89	3172	0	144
89	3648	0	144
89	3712	0	144
89	3884	0	144
89	4324	0	144
89	4352	0	144
89	4440	0	144
89	4496	0	144
89	4504	0	144
89	4564	0	144
89	4928	0	144
89	5036	0	144
89	5444	0	144
89	5772	0	144
89	6244	0	144
89	6424	0	144
89	6460	0	144
89	6696	0	144
89	6792	0	144
90	211	0	91
90	648	0	123
90	753	0	125
90	755	0	125
90	757	0	125
90	821	0	126
90	826	0	126
90	1504	0	131
90	1776	0	131
90	2030	0	131
90	5688	0	144
90	5700	0	144
90	6088	0	144
90	6176	0	144
91	213	0	92
91	234	0	97
91	357	0	114
91	420	0	118
91	424	0	118
91	560	0	122
91	595	0	122
91	614	0	122
91	688	0	124
91	739	0	124
91	977	0	130
91	1070	0	130
91	1144	0	131
91	1508	0	131
91	1512	0	131
91	1528	0	131
91	1644	0	131
91	2056	0	131
91	2140	0	132
91	2166	0	138
91	2712	0	143
91	2998	0	144
91	4012	0	144
91	4176	0	144
91	4212	0	144
91	4444	0	144
91	4508	0	144
91	4628	0	144
91	4636	0	144
91	4932	0	144
91	5164	0	144
91	5208	0	144
91	5376	0	144
91	5756	0	144
91	5836	0	144
91	5948	0	144
91	5976	0	144
91	5996	0	144
91	6644	0	144
91	6672	0	144
92	218	0	93
92	240	0	99
92	257	0	100
92	297	0	107
92	505	0	121
92	643	0	123
92	684	0	124
92	715	0	124
92	735	0	124
92	780	0	126
92	880	0	128
92	1048	0	130
92	1076	0	130
92	1272	0	131
92	2244	0	139
92	2324	0	142
92	2532	0	143
92	2706	0	143
92	2788	0	144
92	2924	0	144
92	4104	0	144
92	4600	0	144
92	4664	0	144
92	4676	0	144
92	4760	0	144
92	4976	0	144
92	5176	0	144
92	5356	0	144
92	6136	0	144
92	6240	0	144
92	6416	0	144
92	6812	0	144
93	219	0	94
93	233	0	97
93	242	0	99
93	252	0	99
93	333	0	114
93	502	0	121
93	694	0	124
93	697	0	124
93	732	0	124
93	776	0	126
93	879	0	128
93	935	0	130
93	1258	0	131
93	1444	0	131
93	1478	0	131
93	1738	0	131
93	1904	0	131
93	1938	0	131
93	2060	0	132
93	2242	0	139
93	2386	0	142
93	2528	0	143
93	2698	0	143
93	2710	0	143
93	3056	0	144
93	3136	0	144
93	3148	0	144
93	3880	0	144
93	4064	0	144
93	4840	0	144
93	5312	0	144
93	6076	0	144
93	6260	0	144
93	6276	0	144
93	6720	0	144
94	224	0	95
94	376	0	116
94	395	0	118
94	423	0	118
94	428	0	118
94	434	0	118
94	764	0	126
94	828	0	126
94	950	0	130
94	1336	0	131
94	1394	0	131
94	1516	0	131
94	1608	0	131
94	1772	0	131
94	1840	0	131
94	2162	0	137
94	2172	0	139
94	2198	0	139
94	2232	0	139
94	2312	0	142
94	2420	0	142
94	2518	0	143
94	2550	0	143
94	2668	0	143
94	2786	0	144
94	2814	0	144
94	2886	0	144
94	3780	0	144
94	3952	0	144
94	4000	0	144
94	4032	0	144
94	4188	0	144
94	4320	0	144
94	4684	0	144
94	4836	0	144
94	5168	0	144
94	5276	0	144
94	5508	0	144
94	5916	0	144
94	6360	0	144
94	6884	0	144
94	6900	0	144
95	227	0	96
95	282	0	104
95	358	0	114
95	398	0	118
95	465	0	121
95	477	0	121
95	537	0	122
95	615	0	122
95	706	0	124
95	709	0	124
95	724	0	124
95	931	0	130
95	1010	0	130
95	1650	0	131
95	1804	0	131
95	1808	0	131
95	2050	0	131
95	2154	0	134
95	2432	0	142
95	2948	0	144
95	3640	0	144
95	3928	0	144
95	4048	0	144
95	4592	0	144
95	4744	0	144
95	4952	0	144
95	5224	0	144
95	5640	0	144
95	5656	0	144
95	5824	0	144
95	5968	0	144
95	6152	0	144
95	6536	0	144
96	228	0	97
96	249	0	99
96	289	0	105
96	513	0	122
96	561	0	122
96	599	0	122
96	602	0	122
96	831	0	126
96	930	0	130
96	938	0	130
96	999	0	130
96	1384	0	131
96	1472	0	131
96	1510	0	131
96	1684	0	131
96	2020	0	131
96	2120	0	132
96	2664	0	143
96	4124	0	144
96	4580	0	144
96	5056	0	144
96	5372	0	144
96	5612	0	144
96	5944	0	144
96	5964	0	144
96	6132	0	144
96	6820	0	144
97	236	0	98
97	285	0	104
97	371	0	116
97	404	0	118
97	474	0	121
97	507	0	121
97	557	0	122
97	571	0	122
97	611	0	122
97	794	0	126
97	920	0	130
97	934	0	130
97	954	0	130
97	963	0	130
97	982	0	130
97	1078	0	131
97	1350	0	131
97	1506	0	131
97	1674	0	131
97	1830	0	131
97	2254	0	139
97	2414	0	142
97	2662	0	143
97	2954	0	144
97	3080	0	144
97	4092	0	144
97	4136	0	144
97	5128	0	144
97	5260	0	144
97	5384	0	144
97	6140	0	144
97	6236	0	144
98	237	0	99
98	348	0	114
98	367	0	116
98	382	0	117
98	598	0	122
98	682	0	124
98	787	0	126
98	984	0	130
98	1050	0	130
98	1094	0	131
98	1242	0	131
98	1298	0	131
98	1526	0	131
98	1758	0	131
98	2024	0	131
98	2302	0	142
98	2434	0	142
98	2578	0	143
98	2638	0	143
98	2760	0	144
98	2780	0	144
98	4376	0	144
98	4428	0	144
98	5148	0	144
98	5608	0	144
98	5956	0	144
99	253	0	100
99	401	0	118
99	410	0	118
99	713	0	124
99	773	0	126
99	948	0	130
99	1052	0	130
99	1234	0	131
99	1254	0	131
99	1484	0	131
99	1800	0	131
99	1974	0	131
99	2044	0	131
99	2200	0	139
99	2540	0	143
99	2672	0	143
99	3104	0	144
99	3164	0	144
99	3208	0	144
99	3672	0	144
99	4068	0	144
99	4336	0	144
99	4364	0	144
99	4448	0	144
99	4712	0	144
99	5048	0	144
99	5160	0	144
99	5988	0	144
99	6104	0	144
100	263	0	101
100	267	0	102
100	269	0	102
100	273	0	103
100	825	0	126
100	2734	0	143
100	3260	0	144
100	3276	0	144
100	3764	0	144
100	3772	0	144
100	5532	0	144
101	264	0	102
101	266	0	102
101	272	0	103
101	3264	0	144
101	3292	0	144
101	3312	0	144
102	271	0	103
102	2740	0	143
102	3280	0	144
102	3304	0	144
103	279	0	104
103	304	0	108
103	645	0	123
103	653	0	123
103	656	0	123
103	689	0	124
103	750	0	125
103	798	0	126
103	819	0	126
103	996	0	130
103	1152	0	131
103	1290	0	131
103	1420	0	131
103	1600	0	131
103	2032	0	131
103	2180	0	139
103	2336	0	142
103	2398	0	142
103	2588	0	143
103	2764	0	144
103	4416	0	144
103	4520	0	144
103	4632	0	144
103	5576	0	144
103	5780	0	144
103	5796	0	144
103	6204	0	144
103	6428	0	144
103	6624	0	144
103	6640	0	144
104	287	0	105
104	389	0	117
104	492	0	121
104	514	0	122
104	516	0	122
104	588	0	122
104	1008	0	130
104	1034	0	130
104	1540	0	131
104	1826	0	131
104	2010	0	131
104	2152	0	134
104	2934	0	144
104	2984	0	144
104	5200	0	144
104	5304	0	144
104	5672	0	144
105	290	0	106
105	551	0	122
105	725	0	124
105	730	0	124
105	905	0	130
105	912	0	130
105	1022	0	130
105	1308	0	131
105	1576	0	131
105	1750	0	131
105	1822	0	131
105	2082	0	132
105	2428	0	142
105	4552	0	144
105	4780	0	144
105	5292	0	144
105	5676	0	144
105	5848	0	144
106	295	0	107
106	417	0	118
106	882	0	128
106	936	0	130
106	1054	0	130
106	1132	0	131
106	1136	0	131
106	1200	0	131
106	1806	0	131
106	2192	0	139
106	2558	0	143
106	2700	0	143
106	3784	0	144
106	3968	0	144
106	4668	0	144
106	4756	0	144
106	5096	0	144
106	5820	0	144
107	298	0	108
107	494	0	121
107	597	0	122
107	675	0	124
107	741	0	124
107	772	0	126
107	944	0	130
107	997	0	130
107	1072	0	130
107	1436	0	131
107	1668	0	131
107	2176	0	139
107	2236	0	139
107	2450	0	142
107	2456	0	142
107	2702	0	143
107	2828	0	144
107	2874	0	144
107	2918	0	144
107	3128	0	144
107	3644	0	144
107	4008	0	144
107	4896	0	144
107	5024	0	144
107	5344	0	144
107	5588	0	144
107	5616	0	144
107	5636	0	144
107	6592	0	144
108	306	0	109
108	315	0	109
108	442	0	120
108	579	0	122
108	924	0	130
108	1728	0	131
108	1786	0	131
108	1792	0	131
108	2330	0	142
108	2772	0	144
108	3232	0	144
108	3344	0	144
108	3460	0	144
108	3468	0	144
108	5692	0	144
108	5708	0	144
108	6180	0	144
108	6208	0	144
108	6876	0	144
109	317	0	110
109	419	0	118
109	456	0	121
109	637	0	123
109	666	0	124
109	802	0	126
109	888	0	128
109	965	0	130
109	1224	0	131
109	1898	0	131
109	1996	0	131
109	2530	0	143
109	2582	0	143
109	2634	0	143
109	2718	0	143
109	2830	0	144
109	2926	0	144
109	4196	0	144
109	4412	0	144
109	4516	0	144
109	4696	0	144
109	4716	0	144
109	4868	0	144
109	5364	0	144
109	5632	0	144
109	5804	0	144
109	6200	0	144
109	6364	0	144
109	6456	0	144
110	319	0	111
110	463	0	121
110	556	0	122
110	589	0	122
110	793	0	126
110	913	0	130
110	955	0	130
110	972	0	130
110	1488	0	131
110	1646	0	131
110	1688	0	131
110	1694	0	131
110	1778	0	131
110	1980	0	131
110	2226	0	139
110	4556	0	144
110	4776	0	144
110	4856	0	144
110	4900	0	144
110	4988	0	144
110	5156	0	144
110	5644	0	144
110	6144	0	144
110	6228	0	144
110	6288	0	144
110	6408	0	144
110	6448	0	144
110	6512	0	144
111	323	0	112
111	473	0	121
111	823	0	126
111	897	0	130
111	915	0	130
111	921	0	130
111	1084	0	131
111	1282	0	131
111	1492	0	131
111	1722	0	131
111	2590	0	143
111	2756	0	144
111	2766	0	144
111	2774	0	144
111	2808	0	144
111	3332	0	144
111	3456	0	144
111	3796	0	144
111	5552	0	144
111	5572	0	144
111	5696	0	144
111	5912	0	144
111	6084	0	144
111	6488	0	144
111	6616	0	144
112	326	0	113
112	369	0	116
112	652	0	123
112	762	0	126
112	796	0	126
112	887	0	128
112	916	0	130
112	918	0	130
112	1208	0	131
112	1284	0	131
112	1416	0	131
112	1426	0	131
112	1498	0	131
112	1896	0	131
112	1942	0	131
112	2354	0	142
112	2442	0	142
112	3228	0	144
112	3732	0	144
112	3820	0	144
112	5424	0	144
112	5556	0	144
112	5740	0	144
112	5776	0	144
112	6212	0	144
112	6468	0	144
112	7008	0	144
113	327	0	114
113	426	0	118
113	430	0	118
113	504	0	121
113	524	0	122
113	529	0	122
113	536	0	122
113	593	0	122
113	797	0	126
113	799	0	126
113	832	0	126
113	937	0	130
113	1218	0	131
113	1222	0	131
113	1236	0	131
113	1564	0	131
113	1568	0	131
113	1602	0	131
113	1636	0	131
113	1666	0	131
113	1746	0	131
113	2004	0	131
113	2034	0	131
113	2054	0	131
113	2072	0	132
113	2400	0	142
113	2538	0	143
113	2586	0	143
113	2956	0	144
113	2960	0	144
113	3008	0	144
113	3876	0	144
113	4088	0	144
113	4168	0	144
113	4340	0	144
113	4652	0	144
113	4768	0	144
113	4924	0	144
113	5088	0	144
113	6096	0	144
113	6224	0	144
113	6232	0	144
113	6308	0	144
113	6404	0	144
113	6768	0	144
113	6800	0	144
114	362	0	115
114	480	0	121
114	487	0	121
114	554	0	122
114	619	0	123
114	728	0	124
114	816	0	126
114	1546	0	131
114	1574	0	131
114	1820	0	131
114	2118	0	132
114	2908	0	144
114	2990	0	144
114	4784	0	144
114	4792	0	144
114	5192	0	144
115	366	0	116
115	372	0	116
115	383	0	117
115	449	0	121
115	475	0	121
115	498	0	121
115	568	0	122
115	600	0	122
115	718	0	124
115	738	0	124
115	939	0	130
115	1038	0	130
115	1252	0	131
115	1278	0	131
115	1482	0	131
115	1538	0	131
115	1680	0	131
115	1780	0	131
115	1824	0	131
115	2012	0	131
115	2114	0	132
115	2392	0	142
115	2676	0	143
115	2708	0	143
115	2720	0	143
115	2900	0	144
115	3100	0	144
115	3636	0	144
115	3652	0	144
115	3976	0	144
115	3992	0	144
115	4540	0	144
115	4820	0	144
115	4880	0	144
115	5016	0	144
115	5084	0	144
115	5204	0	144
115	5244	0	144
115	5448	0	144
115	5628	0	144
115	6676	0	144
115	6816	0	144
115	6836	0	144
116	378	0	117
116	634	0	123
116	703	0	124
116	883	0	128
116	1464	0	131
116	1530	0	131
116	1596	0	131
116	1700	0	131
116	2070	0	132
116	2246	0	139
116	2372	0	142
116	2406	0	142
116	3020	0	144
116	3032	0	144
116	3204	0	144
116	3904	0	144
116	4076	0	144
116	4112	0	144
116	4640	0	144
116	4852	0	144
116	4972	0	144
116	5108	0	144
116	5172	0	144
116	5440	0	144
116	6704	0	144
116	6808	0	144
117	392	0	118
117	501	0	121
117	640	0	123
117	678	0	124
117	685	0	124
117	701	0	124
117	714	0	124
117	774	0	126
117	805	0	126
117	946	0	130
117	979	0	130
117	983	0	130
117	1064	0	130
117	1354	0	131
117	1382	0	131
117	1466	0	131
117	1712	0	131
117	1770	0	131
117	1802	0	131
117	2008	0	131
117	2022	0	131
117	2058	0	131
117	2310	0	142
117	2506	0	143
117	2536	0	143
117	2704	0	143
117	4380	0	144
117	4624	0	144
117	4644	0	144
117	4800	0	144
117	4904	0	144
117	5124	0	144
117	5724	0	144
117	5844	0	144
117	6500	0	144
117	6692	0	144
117	6700	0	144
118	438	0	119
118	651	0	123
118	1148	0	131
118	1414	0	131
118	1496	0	131
118	1944	0	131
118	2334	0	142
118	3236	0	144
118	3744	0	144
118	5568	0	144
118	5792	0	144
118	6484	0	144
118	6608	0	144
119	439	0	120
119	650	0	123
119	655	0	123
119	1086	0	131
119	1266	0	131
119	1790	0	131
119	2644	0	143
119	3328	0	144
119	3984	0	144
119	5580	0	144
119	6604	0	144
119	6664	0	144
120	444	0	121
120	455	0	121
120	606	0	122
120	659	0	124
120	749	0	125
120	751	0	125
120	1206	0	131
120	1892	0	131
120	2332	0	142
120	2338	0	142
120	2768	0	144
120	2812	0	144
120	3736	0	144
120	4316	0	144
120	4524	0	144
120	6184	0	144
120	6216	0	144
120	6300	0	144
120	6744	0	144
121	509	0	122
121	609	0	122
121	613	0	122
121	630	0	123
121	644	0	123
121	834	0	126
121	922	0	130
121	1096	0	131
121	1260	0	131
121	1300	0	131
121	1586	0	131
121	1934	0	131
121	1948	0	131
121	2134	0	132
121	2256	0	139
121	2288	0	141
121	2322	0	142
121	2360	0	142
121	2572	0	143
121	2790	0	144
121	2864	0	144
121	2968	0	144
121	3444	0	144
121	3536	0	144
121	3860	0	144
121	4036	0	144
121	5132	0	144
121	5316	0	144
121	5392	0	144
121	6068	0	144
121	6252	0	144
121	6352	0	144
121	6572	0	144
121	6636	0	144
122	618	0	123
122	726	0	124
122	812	0	126
122	1544	0	131
122	1548	0	131
122	5852	0	144
123	657	0	124
123	923	0	130
123	1418	0	131
123	1422	0	131
123	1500	0	131
123	1946	0	131
123	3340	0	144
123	3472	0	144
123	3812	0	144
123	4480	0	144
123	5564	0	144
123	6168	0	144
123	6476	0	144
124	748	0	125
124	1494	0	131
124	3800	0	144
124	3808	0	144
124	4312	0	144
124	5788	0	144
124	6472	0	144
125	761	0	126
125	2810	0	144
125	3336	0	144
125	3804	0	144
125	5784	0	144
126	854	0	127
126	872	0	128
126	875	0	128
126	2616	0	143
126	2856	0	144
126	4276	0	144
127	855	0	128
128	893	0	129
128	2744	0	144
128	2750	0	144
128	3272	0	144
128	3288	0	144
128	3756	0	144
128	3768	0	144
129	895	0	130
129	2732	0	143
129	2746	0	144
129	3268	0	144
129	3284	0	144
129	3308	0	144
129	3320	0	144
129	3752	0	144
129	5536	0	144
130	2478	0	142
130	2498	0	143
130	2690	0	143
131	2480	0	142
131	2684	0	143
132	2482	0	142
133	2484	0	142
134	2486	0	143
134	2490	0	143
134	2494	0	143
134	2686	0	143
135	2488	0	143
135	2496	0	143
136	2492	0	143
136	2688	0	143
137	2612	0	143
137	3500	0	144
137	4280	0	144
137	6332	0	144
137	6932	0	144
138	2742	0	144
138	3760	0	144

