file 76774 1756984396                                           
version 3
run General-150-20250904-14:13:15-15451
attr configname General
attr datetime 20250904-14:13:15
attr datetimef 20250904-141315
attr experiment General
attr inifile omnetpp.ini
attr iterationvars ""
attr iterationvarsd ""
attr iterationvarsf ""
attr measurement ""
attr network TaxiNetwork
attr processid 15451
attr repetition 150
attr replication #150
attr resultdir results
attr runnumber 150
attr seedset 150
config network TaxiNetwork
config seed-set 150
config num-rngs 1
config sim-time-limit 10s
config repeat 500
config *.numWalkers 1
config *.enableDuplication true
config *.rc 700
config **.node[0].xCor 2933
config **.node[0].yCor 2747
config **.node[1].xCor 2919
config **.node[1].yCor 2817
config **.node[2].xCor 2910
config **.node[2].yCor 2861
config **.node[3].xCor 2429
config **.node[3].yCor 2851
config **.node[4].xCor 2908
config **.node[4].yCor 2714
config **.node[5].xCor 2606
config **.node[5].yCor 2722
config **.node[6].xCor 2575
config **.node[6].yCor 2753
config **.node[7].xCor 2654
config **.node[7].yCor 2513
config **.node[8].xCor 2773
config **.node[8].yCor 2580
config **.node[9].xCor 3043
config **.node[9].yCor 2780
config **.node[10].xCor 3020
config **.node[10].yCor 2813
config **.node[11].xCor 2599
config **.node[11].yCor 2300
config **.node[12].xCor 2917
config **.node[12].yCor 2698
config **.node[13].xCor 2625
config **.node[13].yCor 2641
config **.node[14].xCor 2604
config **.node[14].yCor 2790
config **.node[15].xCor 2786
config **.node[15].yCor 3082
config **.node[16].xCor 2603
config **.node[16].yCor 2802
config **.node[17].xCor 2637
config **.node[17].yCor 2869
config **.node[18].xCor 2675
config **.node[18].yCor 2955
config **.node[19].xCor 2845
config **.node[19].yCor 2937
config **.node[20].xCor 2860
config **.node[20].yCor 2888
config **.node[21].xCor 2843
config **.node[21].yCor 4158
config **.node[22].xCor 2852
config **.node[22].yCor 4017
config **.node[23].xCor 2892
config **.node[23].yCor 4961
config **.node[24].xCor 2313
config **.node[24].yCor 3993
config **.node[25].xCor 2891
config **.node[25].yCor 4959
config **.node[26].xCor 2370
config **.node[26].yCor 4050
config **.node[27].xCor 2788
config **.node[27].yCor 3958
config **.node[28].xCor 2819
config **.node[28].yCor 4428
config **.node[29].xCor 2790
config **.node[29].yCor 3761
config **.node[30].xCor 2809
config **.node[30].yCor 2908
config **.node[31].xCor 2919
config **.node[31].yCor 3575
config **.node[32].xCor 2946
config **.node[32].yCor 3466
config **.node[33].xCor 2911
config **.node[33].yCor 3453
config **.node[34].xCor 2370
config **.node[34].yCor 3656
config **.node[35].xCor 2438
config **.node[35].yCor 3738
config **.node[36].xCor 2737
config **.node[36].yCor 3570
config **.node[37].xCor 2921
config **.node[37].yCor 3698
config **.node[38].xCor 2907
config **.node[38].yCor 5197
config **.node[39].xCor 2860
config **.node[39].yCor 3852
config **.node[40].xCor 2927
config **.node[40].yCor 3684
config **.node[41].xCor 3023
config **.node[41].yCor 5313
config **.node[42].xCor 3220
config **.node[42].yCor 5811
config **.node[43].xCor 3432
config **.node[43].yCor 5715
config **.node[44].xCor 2754
config **.node[44].yCor 2463
config **.node[45].xCor 2646
config **.node[45].yCor 2673
config **.node[46].xCor 3051
config **.node[46].yCor 2792
config **.node[47].xCor 1666
config **.node[47].yCor 3697
config **.node[48].xCor 1662
config **.node[48].yCor 3694
config **.node[49].xCor 1664
config **.node[49].yCor 3667
config **.node[50].xCor 1660
config **.node[50].yCor 3664
config **.node[51].xCor 1710
config **.node[51].yCor 3573
config **.node[52].xCor 2082
config **.node[52].yCor 2650
config **.node[53].xCor 2086
config **.node[53].yCor 2657
config **.node[54].xCor 2257
config **.node[54].yCor 3232
config **.node[55].xCor 2258
config **.node[55].yCor 3225
config **.node[56].xCor 1926
config **.node[56].yCor 2570
config **.node[57].xCor 1926
config **.node[57].yCor 2576
config **.node[58].xCor 2104
config **.node[58].yCor 1758
config **.node[59].xCor 1957
config **.node[59].yCor 1826
config **.node[60].xCor 3473
config **.node[60].yCor 1523
config **.node[61].xCor 3335
config **.node[61].yCor 1726
config **.node[62].xCor 3478
config **.node[62].yCor 1517
config **.node[63].xCor 3386
config **.node[63].yCor 2119
config **.node[64].xCor 3474
config **.node[64].yCor 1762
config **.node[65].xCor 3797
config **.node[65].yCor 2099
config **.node[66].xCor 3642
config **.node[66].yCor 2136
config **.node[67].xCor 3481
config **.node[67].yCor 2334
config **.node[68].xCor 3088
config **.node[68].yCor 1505
config **.node[69].xCor 3037
config **.node[69].yCor 1693
config **.node[70].xCor 3026
config **.node[70].yCor 1700
config **.node[71].xCor 3019
config **.node[71].yCor 669
config **.node[72].xCor 3513
config **.node[72].yCor 1358
config **.node[73].xCor 3545
config **.node[73].yCor 1230
config **.node[74].xCor 4228
config **.node[74].yCor 4220
config **.node[75].xCor 3379
config **.node[75].yCor 1207
config **.node[76].xCor 3596
config **.node[76].yCor 963
config **.node[77].xCor 3637
config **.node[77].yCor 1188
config **.node[78].xCor 3759
config **.node[78].yCor 1030
config **.node[79].xCor 2918
config **.node[79].yCor 1455
config **.node[80].xCor 2711
config **.node[80].yCor 1297
config **.node[81].xCor 439
config **.node[81].yCor 1623
config **.node[82].xCor 2857
config **.node[82].yCor 3581
config **.node[83].xCor 2858
config **.node[83].yCor 3584
config **.node[84].xCor 2999
config **.node[84].yCor 2636
config **.node[85].xCor 2905
config **.node[85].yCor 2778
config **.node[86].xCor 2653
config **.node[86].yCor 2845
config **.node[87].xCor 2864
config **.node[87].yCor 2836
config **.node[88].xCor 2426
config **.node[88].yCor 2892
config **.node[89].xCor 2964
config **.node[89].yCor 2804
config **.node[90].xCor 2586
config **.node[90].yCor 3135
config **.node[91].xCor 2864
config **.node[91].yCor 2980
config **.node[92].xCor 2527
config **.node[92].yCor 3219
config **.node[93].xCor 2863
config **.node[93].yCor 3142
config **.node[94].xCor 2485
config **.node[94].yCor 3269
config **.node[95].xCor 2653
config **.node[95].yCor 1065
config **.node[96].xCor 4062
config **.node[96].yCor 400
config **.node[97].xCor 5762
config **.node[97].yCor 3023
config **.node[98].xCor 1414
config **.node[98].yCor 3461
config **.node[99].xCor 2911
config **.node[99].yCor 1737
config **.node[100].xCor 2595
config **.node[100].yCor 2299
config **.node[101].xCor 2702
config **.node[101].yCor 3419
config **.node[102].xCor 2813
config **.node[102].yCor 3307
config **.node[103].xCor 2638
config **.node[103].yCor 2258
config **.node[104].xCor 2590
config **.node[104].yCor 3125
config **.node[105].xCor 1856
config **.node[105].yCor 2990
config **.node[106].xCor 1894
config **.node[106].yCor 2239
config **.node[107].xCor 383
config **.node[107].yCor 1251
config **.node[108].xCor 3447
config **.node[108].yCor 5489
config **.node[109].xCor 3450
config **.node[109].yCor 5697
config **.node[110].xCor 2719
config **.node[110].yCor 1920
config **.node[111].xCor 2085
config **.node[111].yCor 2389
config **.node[112].xCor 1910
config **.node[112].yCor 2548
config **.node[113].xCor 2069
config **.node[113].yCor 2050
config **.node[114].xCor 2184
config **.node[114].yCor 2209
config **.node[115].xCor 2278
config **.node[115].yCor 2390
config **.node[116].xCor 2249
config **.node[116].yCor 2299
config **.node[117].xCor 2356
config **.node[117].yCor 2303
config **.node[118].xCor 2192
config **.node[118].yCor 2475
config **.node[119].xCor 1720
config **.node[119].yCor 2911
config **.node[120].xCor 2400
config **.node[120].yCor 2887
config **.node[121].xCor 3344
config **.node[121].yCor 1890
config **.node[122].xCor 3136
config **.node[122].yCor 2418
config **.node[123].xCor 3243
config **.node[123].yCor 2525
config **.node[124].xCor 2396
config **.node[124].yCor 1267
config **.node[125].xCor 467
config **.node[125].yCor 1875
config **.node[126].xCor 3506
config **.node[126].yCor 1221
config **.node[127].xCor 1034
config **.node[127].yCor 1474
config **.node[128].xCor 2908
config **.node[128].yCor 1784
config **.node[129].xCor 2876
config **.node[129].yCor 1761
config **.node[130].xCor 2849
config **.node[130].yCor 1795
config **.node[131].xCor 3029
config **.node[131].yCor 1859
config **.node[132].xCor 2924
config **.node[132].yCor 1848
config **.node[133].xCor 3493
config **.node[133].yCor 1559
config **.node[134].xCor 2760
config **.node[134].yCor 1761
config **.node[135].xCor 1644
config **.node[135].yCor 3755
config **.node[136].xCor 1463
config **.node[136].yCor 3432
config **.node[137].xCor 2595
config **.node[137].yCor 2849
config **.node[138].xCor 2581
config **.node[138].yCor 2867
config **.node[139].xCor 2524
config **.node[139].yCor 2911
config **.node[140].xCor 2570
config **.node[140].yCor 2924
config **.node[141].xCor 2676
config **.node[141].yCor 2890
config **.node[142].xCor 2666
config **.node[142].yCor 2876
config **.node[143].xCor 3735
config **.node[143].yCor 1726
config **.node[144].xCor 1637
config **.node[144].yCor 3438

vector 0 TaxiNetwork.node[103] visitedPerTimestep ETV
vector 1 TaxiNetwork.node[69] visitedPerTimestep ETV
vector 2 TaxiNetwork.node[126] visitedPerTimestep ETV
vector 3 TaxiNetwork.node[68] visitedPerTimestep ETV
vector 4 TaxiNetwork.node[99] visitedPerTimestep ETV
vector 5 TaxiNetwork.node[64] visitedPerTimestep ETV
vector 6 TaxiNetwork.node[133] visitedPerTimestep ETV
vector 7 TaxiNetwork.node[70] visitedPerTimestep ETV
vector 8 TaxiNetwork.node[75] visitedPerTimestep ETV
vector 9 TaxiNetwork.node[110] visitedPerTimestep ETV
vector 10 TaxiNetwork.node[115] visitedPerTimestep ETV
vector 11 TaxiNetwork.node[52] visitedPerTimestep ETV
vector 12 TaxiNetwork.node[57] visitedPerTimestep ETV
vector 13 TaxiNetwork.node[119] visitedPerTimestep ETV
vector 14 TaxiNetwork.node[120] visitedPerTimestep ETV
vector 15 TaxiNetwork.node[1] visitedPerTimestep ETV
vector 16 TaxiNetwork.node[122] visitedPerTimestep ETV
vector 17 TaxiNetwork.node[44] visitedPerTimestep ETV
vector 18 TaxiNetwork.node[7] visitedPerTimestep ETV
vector 19 TaxiNetwork.node[117] visitedPerTimestep ETV
vector 20 TaxiNetwork.node[140] visitedPerTimestep ETV
vector 21 TaxiNetwork.node[101] visitedPerTimestep ETV
vector 22 TaxiNetwork.node[37] visitedPerTimestep ETV
vector 23 TaxiNetwork.node[39] visitedPerTimestep ETV
vector 24 TaxiNetwork.node[40] visitedPerTimestep ETV
vector 25 TaxiNetwork.node[34] visitedPerTimestep ETV
vector 26 TaxiNetwork.node[21] visitedPerTimestep ETV
vector 27 TaxiNetwork.node[27] visitedPerTimestep ETV
vector 28 TaxiNetwork.node[26] visitedPerTimestep ETV
vector 29 TaxiNetwork.node[35] visitedPerTimestep ETV
vector 30 TaxiNetwork.node[104] visitedPerTimestep ETV
vector 31 TaxiNetwork.node[36] visitedPerTimestep ETV
vector 32 TaxiNetwork.node[93] visitedPerTimestep ETV
vector 33 TaxiNetwork.node[54] visitedPerTimestep ETV
vector 34 TaxiNetwork.node[14] visitedPerTimestep ETV
vector 35 TaxiNetwork.node[16] visitedPerTimestep ETV
vector 36 TaxiNetwork.node[11] visitedPerTimestep ETV
vector 37 TaxiNetwork.node[137] visitedPerTimestep ETV
vector 38 TaxiNetwork.node[3] visitedPerTimestep ETV
vector 39 TaxiNetwork.node[90] visitedPerTimestep ETV
vector 40 TaxiNetwork.node[92] visitedPerTimestep ETV
vector 41 TaxiNetwork.node[32] visitedPerTimestep ETV
vector 42 TaxiNetwork.node[33] visitedPerTimestep ETV
vector 43 TaxiNetwork.node[10] visitedPerTimestep ETV
vector 44 TaxiNetwork.node[6] visitedPerTimestep ETV
vector 45 TaxiNetwork.node[8] visitedPerTimestep ETV
vector 46 TaxiNetwork.node[5] visitedPerTimestep ETV
vector 47 TaxiNetwork.node[0] visitedPerTimestep ETV
vector 48 TaxiNetwork.node[4] visitedPerTimestep ETV
vector 49 TaxiNetwork.node[84] visitedPerTimestep ETV
vector 50 TaxiNetwork.node[123] visitedPerTimestep ETV
vector 51 TaxiNetwork.node[67] visitedPerTimestep ETV
vector 52 TaxiNetwork.node[66] visitedPerTimestep ETV
vector 53 TaxiNetwork.node[62] visitedPerTimestep ETV
vector 54 TaxiNetwork.node[121] visitedPerTimestep ETV
vector 55 TaxiNetwork.node[100] visitedPerTimestep ETV
vector 56 TaxiNetwork.node[9] visitedPerTimestep ETV
vector 57 TaxiNetwork.node[88] visitedPerTimestep ETV
vector 58 TaxiNetwork.node[45] visitedPerTimestep ETV
vector 59 TaxiNetwork.node[53] visitedPerTimestep ETV
vector 60 TaxiNetwork.node[105] visitedPerTimestep ETV
vector 61 TaxiNetwork.node[94] visitedPerTimestep ETV
vector 62 TaxiNetwork.node[142] visitedPerTimestep ETV
vector 63 TaxiNetwork.node[86] visitedPerTimestep ETV
vector 64 TaxiNetwork.node[89] visitedPerTimestep ETV
vector 65 TaxiNetwork.node[12] visitedPerTimestep ETV
vector 66 TaxiNetwork.node[139] visitedPerTimestep ETV
vector 67 TaxiNetwork.node[13] visitedPerTimestep ETV
vector 68 TaxiNetwork.node[138] visitedPerTimestep ETV
vector 69 TaxiNetwork.node[20] visitedPerTimestep ETV
vector 70 TaxiNetwork.node[82] visitedPerTimestep ETV
vector 71 TaxiNetwork.node[30] visitedPerTimestep ETV
vector 72 TaxiNetwork.node[85] visitedPerTimestep ETV
vector 73 TaxiNetwork.node[102] visitedPerTimestep ETV
vector 74 TaxiNetwork.node[22] visitedPerTimestep ETV
vector 75 TaxiNetwork.node[29] visitedPerTimestep ETV
vector 76 TaxiNetwork.node[15] visitedPerTimestep ETV
vector 77 TaxiNetwork.node[2] visitedPerTimestep ETV
vector 78 TaxiNetwork.node[91] visitedPerTimestep ETV
vector 79 TaxiNetwork.node[31] visitedPerTimestep ETV
vector 80 TaxiNetwork.node[18] visitedPerTimestep ETV
vector 81 TaxiNetwork.node[46] visitedPerTimestep ETV
vector 82 TaxiNetwork.node[114] visitedPerTimestep ETV
vector 83 TaxiNetwork.node[131] visitedPerTimestep ETV
vector 84 TaxiNetwork.node[19] visitedPerTimestep ETV
vector 85 TaxiNetwork.node[56] visitedPerTimestep ETV
vector 86 TaxiNetwork.node[118] visitedPerTimestep ETV
vector 87 TaxiNetwork.node[111] visitedPerTimestep ETV
vector 88 TaxiNetwork.node[87] visitedPerTimestep ETV
vector 89 TaxiNetwork.node[58] visitedPerTimestep ETV
vector 90 TaxiNetwork.node[124] visitedPerTimestep ETV
vector 91 TaxiNetwork.node[134] visitedPerTimestep ETV
vector 92 TaxiNetwork.node[141] visitedPerTimestep ETV
vector 93 TaxiNetwork.node[55] visitedPerTimestep ETV
vector 94 TaxiNetwork.node[51] visitedPerTimestep ETV
vector 95 TaxiNetwork.node[49] visitedPerTimestep ETV
vector 96 TaxiNetwork.node[144] visitedPerTimestep ETV
vector 97 TaxiNetwork.node[47] visitedPerTimestep ETV
vector 98 TaxiNetwork.node[98] visitedPerTimestep ETV
vector 99 TaxiNetwork.node[136] visitedPerTimestep ETV
vector 100 TaxiNetwork.node[50] visitedPerTimestep ETV
vector 101 TaxiNetwork.node[83] visitedPerTimestep ETV
vector 102 TaxiNetwork.node[28] visitedPerTimestep ETV
vector 103 TaxiNetwork.node[24] visitedPerTimestep ETV
vector 104 TaxiNetwork.node[77] visitedPerTimestep ETV
vector 105 TaxiNetwork.node[128] visitedPerTimestep ETV
vector 106 TaxiNetwork.node[132] visitedPerTimestep ETV
vector 107 TaxiNetwork.node[63] visitedPerTimestep ETV
vector 108 TaxiNetwork.node[79] visitedPerTimestep ETV
vector 109 TaxiNetwork.node[80] visitedPerTimestep ETV
vector 110 TaxiNetwork.node[72] visitedPerTimestep ETV
vector 111 TaxiNetwork.node[73] visitedPerTimestep ETV
vector 112 TaxiNetwork.node[129] visitedPerTimestep ETV
vector 113 TaxiNetwork.node[95] visitedPerTimestep ETV
vector 114 TaxiNetwork.node[112] visitedPerTimestep ETV
vector 115 TaxiNetwork.node[116] visitedPerTimestep ETV
vector 116 TaxiNetwork.node[127] visitedPerTimestep ETV
vector 117 TaxiNetwork.node[130] visitedPerTimestep ETV
vector 118 TaxiNetwork.node[106] visitedPerTimestep ETV
vector 119 TaxiNetwork.node[48] visitedPerTimestep ETV
vector 120 TaxiNetwork.node[17] visitedPerTimestep ETV
vector 121 TaxiNetwork.node[65] visitedPerTimestep ETV
vector 122 TaxiNetwork.node[143] visitedPerTimestep ETV
vector 123 TaxiNetwork.node[60] visitedPerTimestep ETV
vector 124 TaxiNetwork.node[113] visitedPerTimestep ETV
vector 125 TaxiNetwork.node[78] visitedPerTimestep ETV
vector 126 TaxiNetwork.node[71] visitedPerTimestep ETV
vector 127 TaxiNetwork.node[76] visitedPerTimestep ETV
vector 128 TaxiNetwork.node[61] visitedPerTimestep ETV
vector 129 TaxiNetwork.node[74] visitedPerTimestep ETV
vector 130 TaxiNetwork.node[108] visitedPerTimestep ETV
vector 131 TaxiNetwork.node[38] visitedPerTimestep ETV
vector 132 TaxiNetwork.node[23] visitedPerTimestep ETV
vector 133 TaxiNetwork.node[41] visitedPerTimestep ETV
vector 134 TaxiNetwork.node[109] visitedPerTimestep ETV
vector 135 TaxiNetwork.node[59] visitedPerTimestep ETV
vector 136 TaxiNetwork.node[25] visitedPerTimestep ETV
vector 137 TaxiNetwork.node[125] visitedPerTimestep ETV
vector 138 TaxiNetwork.node[107] visitedPerTimestep ETV
vector 139 TaxiNetwork.node[81] visitedPerTimestep ETV
vector 140 TaxiNetwork.node[135] visitedPerTimestep ETV
vector 141 TaxiNetwork.node[96] visitedPerTimestep ETV
0	16810 881 1 18376 0 0 69 1 144 8944 1200896
1	17691 395 2 14952 0 0 32 2 144 3895 512375
2	18086 260 3 19640 0 0 20 3 144 2661 372321
3	18346 456 4 19528 0 0 36 4 144 4649 622085
4	18802 377 5 19512 0 0 30 5 144 3819 505747
5	19179 277 6 14656 0 0 22 6 144 2753 375931
6	19456 317 7 19688 0 0 25 7 144 3156 422862
7	19773 290 8 16472 0 0 23 8 144 2920 394348
8	20063 290 9 19432 0 0 23 9 144 2965 399395
9	20353 359 12 19608 0 0 28 10 144 3637 492237
10	20712 488 13 18936 0 0 36 11 144 4507 588789
11	21200 642 14 18424 0 0 46 12 144 6082 829510
12	21842 239 15 13712 0 0 17 13 144 2233 309385
13	22081 262 16 18040 0 0 19 14 144 2443 331739
14	22343 707 17 17224 0 0 51 15 144 6648 895200
15	23050 636 18 18584 0 0 46 16 144 5923 791847
16	23686 570 19 18360 0 0 41 17 144 5402 730066
17	24256 871 20 18600 0 0 63 18 144 8258 1111682
18	25127 929 21 17576 0 0 67 19 144 8825 1189749
19	26056 538 22 18840 0 0 39 20 144 5083 681021
20	26594 786 23 18824 0 0 57 21 144 7438 1000394
21	27380 517 24 18808 0 0 37 22 144 4944 675840
22	27897 409 25 14008 0 0 30 23 144 3758 496008
23	28306 188 26 9192 0 0 14 24 143 1658 210978
24	28494 302 27 18792 0 0 22 25 144 2802 379620
25	28796 330 28 14144 0 0 24 26 144 2944 388516
26	29126 181 29 14152 0 0 13 27 144 1675 228847
27	29307 291 30 14072 0 0 21 28 144 2684 357122
28	29598 194 31 14064 0 0 14 29 144 1807 244949
29	29792 219 32 13360 0 0 16 30 144 2034 271268
30	30011 575 33 18104 0 0 41 31 144 5399 738739
31	30586 400 35 14040 0 0 29 32 144 3769 503605
32	30986 840 36 18552 0 0 60 33 144 8023 1091257
33	31826 528 37 17736 0 0 37 34 144 5033 697255
34	32354 658 38 17960 0 0 47 35 144 6277 851707
35	33012 505 39 16728 0 0 37 36 144 4673 613097
36	33517 1089 40 17560 0 0 78 37 144 10423 1420997
37	34606 922 41 18888 0 0 66 38 144 8881 1214629
38	35528 992 42 18952 0 0 71 39 144 9492 1292012
39	36520 733 43 16216 0 0 53 40 144 7001 941091
40	37253 701 44 17480 0 0 50 41 144 6716 919270
41	37954 415 46 17784 0 0 30 42 144 3928 527478
42	38369 670 50 14352 0 0 48 43 144 6407 866975
43	39039 836 51 18712 0 0 60 44 144 7954 1071382
44	39875 664 52 15736 0 0 48 45 144 6249 831549
45	40539 780 53 19080 0 0 56 46 144 7497 1019071
46	41319 966 55 18984 0 0 69 47 144 9188 1249454
47	42285 663 56 18328 0 0 48 48 144 6232 832780
48	42948 810 58 18680 0 0 59 49 144 7569 1005493
49	43758 700 59 18968 0 0 50 50 144 6775 931367
50	44458 501 60 18312 0 0 36 51 144 4811 652453
51	44959 306 61 16648 0 0 22 52 144 2829 378233
52	45265 138 62 10064 0 0 10 53 143 1315 179961
53	45403 379 63 19656 0 0 27 54 144 3666 505500
54	45782 441 66 19624 0 0 32 55 144 4232 569288
55	46223 782 70 18728 0 0 57 56 144 7468 999530
56	47005 459 72 17496 0 0 33 57 144 4469 612901
57	47464 799 74 17368 0 0 57 58 144 7691 1051251
58	48263 748 79 17208 0 0 54 59 144 7124 955614
59	49011 656 80 15896 0 0 47 60 144 6276 850950
60	49667 322 82 13120 0 0 23 61 144 3093 424017
61	49989 593 83 12560 0 0 43 62 144 5638 752518
62	50582 757 85 19032 0 0 54 63 144 7261 989685
63	51339 742 86 18248 0 0 53 64 144 7059 953533
64	52081 641 88 17832 0 0 46 65 144 6208 849644
65	52722 761 91 18200 0 0 55 66 144 7264 976938
66	53483 742 93 18264 0 0 53 67 144 7245 998201
67	54225 618 96 18616 0 0 45 68 144 5790 761802
68	54843 695 109 17752 0 0 50 69 144 6579 883557
69	55538 644 110 19000 0 0 46 70 144 6171 836293
70	56182 408 113 18776 0 0 29 71 144 3946 542524
71	56590 803 114 18744 0 0 57 72 144 7763 1064891
72	57393 469 115 16696 0 0 34 73 144 4381 577889
73	57862 719 119 18872 0 0 51 74 144 6970 959036
74	58581 165 121 14160 0 0 12 75 144 1548 204728
75	58746 195 123 17864 0 0 14 76 144 1858 250888
76	58941 556 124 19048 0 0 40 77 144 5342 722028
77	59497 648 128 19064 0 0 47 78 144 6204 831120
78	60145 769 129 18344 0 0 55 79 144 7263 974367
79	60914 178 130 14736 0 0 13 80 144 1704 227152
80	61092 714 131 18536 0 0 51 81 144 6859 932819
81	61806 667 133 17448 0 0 48 82 144 6478 882468
82	62473 310 140 17336 0 0 22 83 144 3004 414072
83	62783 364 157 19560 0 0 26 84 144 3496 475500
84	63147 754 163 18568 0 0 54 85 144 7303 995501
85	63901 264 172 17352 0 0 19 86 144 2552 346390
86	64165 492 173 18072 0 0 35 87 144 4741 649481
87	64657 515 176 18904 0 0 37 88 144 4993 678297
88	65172 673 199 18648 0 0 48 89 144 6542 896364
89	65845 109 209 17304 0 0 8 90 144 1032 136242
90	65954 174 210 8552 0 0 13 91 143 1631 207899
91	66128 332 211 14672 0 0 24 92 144 3194 430386
92	66460 732 216 18216 0 0 52 93 144 7069 965701
93	67192 461 225 17528 0 0 33 94 144 4452 604556
94	67653 134 226 15688 0 0 10 95 144 1227 155135
95	67787 80 227 5824 0 0 6 96 143 765 99363
96	67867 64 229 8064 0 0 5 97 143 579 68459
97	67931 40 230 5816 0 0 3 98 143 384 50502
98	67971 121 231 18024 0 0 9 99 144 1150 149806
99	68092 82 236 5832 0 0 6 100 143 788 105068
100	68174 29 238 5812 0 0 2 101 143 244 30650
101	68203 500 242 17144 0 0 33 102 144 4468 608974
102	68703 164 245 13392 0 0 11 103 144 1485 202305
103	68867 132 246 8768 0 0 9 104 143 1151 148323
104	68999 192 267 14624 0 0 13 105 144 1739 234295
105	69191 316 271 19240 0 0 21 106 144 2877 395971
106	69507 405 273 19112 0 0 27 107 144 3664 499356
107	69912 303 283 14960 0 0 20 108 144 2782 388450
108	70215 413 285 14848 0 0 28 109 144 3711 494911
109	70628 357 290 19496 0 0 24 110 144 3200 429412
110	70985 364 295 19672 0 0 24 111 144 3330 463808
111	71349 205 297 19416 0 0 14 112 144 1855 246993
112	71554 431 299 19384 0 0 29 113 144 3985 549663
113	71985 120 301 19480 0 0 8 114 144 1083 147457
114	72105 229 307 18056 0 0 15 115 144 2063 285209
115	72334 355 327 16984 0 0 24 116 144 3212 432174
116	72689 226 335 19368 0 0 15 117 144 2095 293405
117	72915 359 336 19592 0 0 24 118 144 3247 440797
118	73274 168 372 16072 0 0 11 119 144 1532 213994
119	73442 29 408 8072 0 0 2 120 143 263 34849
120	73471 778 429 17896 0 0 52 121 144 7100 972450
121	74249 147 434 14552 0 0 10 122 144 1327 176669
122	74396 333 440 14968 0 0 22 123 144 3038 420610
123	74729 333 445 19400 0 0 22 124 144 3069 429015
124	75062 181 506 17320 0 0 12 125 144 1675 234205
125	75243 227 717 19704 0 0 15 126 144 2099 294211
126	75470 73 823 4740 0 0 5 127 143 675 91349
127	75543 151 930 11456 0 0 10 128 144 1402 196790
128	75694 336 1024 19576 0 0 22 129 144 3060 426176
129	76030 106 2310 10896 0 0 7 131 144 970 134520
130	76136 30 2312 2322 0 0 2 132 135 267 35649
131	76166 45 2314 7848 0 0 3 133 143 410 56094
132	76211 30 2316 7856 0 0 2 134 143 277 38405
133	76241 15 2320 2320 0 0 1 135 135 135 18225
134	76256 15 2324 2324 0 0 1 136 136 136 18496
135	76271 91 2368 18920 0 0 6 136 144 840 117644
136	76362 30 3336 7840 0 0 2 139 143 282 39770
137	76392 122 3836 19352 0 0 8 140 144 1138 161892
138	76514 153 3840 19336 0 0 10 141 144 1427 203643
139	76667 75 3844 6664 0 0 5 142 143 712 101390
140	76742 15 5804 5804 0 0 1 143 143 143 20449
141	76757 16 19720 19720 0 0 1 145 145 145 21025

