version 3
run General-254-20250904-14:13:19-15624
attr configname General
attr datetime 20250904-14:13:19
attr datetimef 20250904-141319
attr experiment General
attr inifile omnetpp.ini
attr iterationvars ""
attr iterationvarsd ""
attr iterationvarsf ""
attr measurement ""
attr network TaxiNetwork
attr processid 15624
attr repetition 254
attr replication #254
attr resultdir results
attr runnumber 254
attr seedset 254
config network TaxiNetwork
config seed-set 254
config num-rngs 1
config sim-time-limit 10s
config repeat 500
config *.numWalkers 1
config *.enableDuplication true
config *.rc 700
config **.node[0].xCor 2933
config **.node[0].yCor 2747
config **.node[1].xCor 2919
config **.node[1].yCor 2817
config **.node[2].xCor 2910
config **.node[2].yCor 2861
config **.node[3].xCor 2429
config **.node[3].yCor 2851
config **.node[4].xCor 2908
config **.node[4].yCor 2714
config **.node[5].xCor 2606
config **.node[5].yCor 2722
config **.node[6].xCor 2575
config **.node[6].yCor 2753
config **.node[7].xCor 2654
config **.node[7].yCor 2513
config **.node[8].xCor 2773
config **.node[8].yCor 2580
config **.node[9].xCor 3043
config **.node[9].yCor 2780
config **.node[10].xCor 3020
config **.node[10].yCor 2813
config **.node[11].xCor 2599
config **.node[11].yCor 2300
config **.node[12].xCor 2917
config **.node[12].yCor 2698
config **.node[13].xCor 2625
config **.node[13].yCor 2641
config **.node[14].xCor 2604
config **.node[14].yCor 2790
config **.node[15].xCor 2786
config **.node[15].yCor 3082
config **.node[16].xCor 2603
config **.node[16].yCor 2802
config **.node[17].xCor 2637
config **.node[17].yCor 2869
config **.node[18].xCor 2675
config **.node[18].yCor 2955
config **.node[19].xCor 2845
config **.node[19].yCor 2937
config **.node[20].xCor 2860
config **.node[20].yCor 2888
config **.node[21].xCor 2843
config **.node[21].yCor 4158
config **.node[22].xCor 2852
config **.node[22].yCor 4017
config **.node[23].xCor 2892
config **.node[23].yCor 4961
config **.node[24].xCor 2313
config **.node[24].yCor 3993
config **.node[25].xCor 2891
config **.node[25].yCor 4959
config **.node[26].xCor 2370
config **.node[26].yCor 4050
config **.node[27].xCor 2788
config **.node[27].yCor 3958
config **.node[28].xCor 2819
config **.node[28].yCor 4428
config **.node[29].xCor 2790
config **.node[29].yCor 3761
config **.node[30].xCor 2809
config **.node[30].yCor 2908
config **.node[31].xCor 2919
config **.node[31].yCor 3575
config **.node[32].xCor 2946
config **.node[32].yCor 3466
config **.node[33].xCor 2911
config **.node[33].yCor 3453
config **.node[34].xCor 2370
config **.node[34].yCor 3656
config **.node[35].xCor 2438
config **.node[35].yCor 3738
config **.node[36].xCor 2737
config **.node[36].yCor 3570
config **.node[37].xCor 2921
config **.node[37].yCor 3698
config **.node[38].xCor 2907
config **.node[38].yCor 5197
config **.node[39].xCor 2860
config **.node[39].yCor 3852
config **.node[40].xCor 2927
config **.node[40].yCor 3684
config **.node[41].xCor 3023
config **.node[41].yCor 5313
config **.node[42].xCor 3220
config **.node[42].yCor 5811
config **.node[43].xCor 3432
config **.node[43].yCor 5715
config **.node[44].xCor 2754
config **.node[44].yCor 2463
config **.node[45].xCor 2646
config **.node[45].yCor 2673
config **.node[46].xCor 3051
config **.node[46].yCor 2792
config **.node[47].xCor 1666
config **.node[47].yCor 3697
config **.node[48].xCor 1662
config **.node[48].yCor 3694
config **.node[49].xCor 1664
config **.node[49].yCor 3667
config **.node[50].xCor 1660
config **.node[50].yCor 3664
config **.node[51].xCor 1710
config **.node[51].yCor 3573
config **.node[52].xCor 2082
config **.node[52].yCor 2650
config **.node[53].xCor 2086
config **.node[53].yCor 2657
config **.node[54].xCor 2257
config **.node[54].yCor 3232
config **.node[55].xCor 2258
config **.node[55].yCor 3225
config **.node[56].xCor 1926
config **.node[56].yCor 2570
config **.node[57].xCor 1926
config **.node[57].yCor 2576
config **.node[58].xCor 2104
config **.node[58].yCor 1758
config **.node[59].xCor 1957
config **.node[59].yCor 1826
config **.node[60].xCor 3473
config **.node[60].yCor 1523
config **.node[61].xCor 3335
config **.node[61].yCor 1726
config **.node[62].xCor 3478
config **.node[62].yCor 1517
config **.node[63].xCor 3386
config **.node[63].yCor 2119
config **.node[64].xCor 3474
config **.node[64].yCor 1762
config **.node[65].xCor 3797
config **.node[65].yCor 2099
config **.node[66].xCor 3642
config **.node[66].yCor 2136
config **.node[67].xCor 3481
config **.node[67].yCor 2334
config **.node[68].xCor 3088
config **.node[68].yCor 1505
config **.node[69].xCor 3037
config **.node[69].yCor 1693
config **.node[70].xCor 3026
config **.node[70].yCor 1700
config **.node[71].xCor 3019
config **.node[71].yCor 669
config **.node[72].xCor 3513
config **.node[72].yCor 1358
config **.node[73].xCor 3545
config **.node[73].yCor 1230
config **.node[74].xCor 4228
config **.node[74].yCor 4220
config **.node[75].xCor 3379
config **.node[75].yCor 1207
config **.node[76].xCor 3596
config **.node[76].yCor 963
config **.node[77].xCor 3637
config **.node[77].yCor 1188
config **.node[78].xCor 3759
config **.node[78].yCor 1030
config **.node[79].xCor 2918
config **.node[79].yCor 1455
config **.node[80].xCor 2711
config **.node[80].yCor 1297
config **.node[81].xCor 439
config **.node[81].yCor 1623
config **.node[82].xCor 2857
config **.node[82].yCor 3581
config **.node[83].xCor 2858
config **.node[83].yCor 3584
config **.node[84].xCor 2999
config **.node[84].yCor 2636
config **.node[85].xCor 2905
config **.node[85].yCor 2778
config **.node[86].xCor 2653
config **.node[86].yCor 2845
config **.node[87].xCor 2864
config **.node[87].yCor 2836
config **.node[88].xCor 2426
config **.node[88].yCor 2892
config **.node[89].xCor 2964
config **.node[89].yCor 2804
config **.node[90].xCor 2586
config **.node[90].yCor 3135
config **.node[91].xCor 2864
config **.node[91].yCor 2980
config **.node[92].xCor 2527
config **.node[92].yCor 3219
config **.node[93].xCor 2863
config **.node[93].yCor 3142
config **.node[94].xCor 2485
config **.node[94].yCor 3269
config **.node[95].xCor 2653
config **.node[95].yCor 1065
config **.node[96].xCor 4062
config **.node[96].yCor 400
config **.node[97].xCor 5762
config **.node[97].yCor 3023
config **.node[98].xCor 1414
config **.node[98].yCor 3461
config **.node[99].xCor 2911
config **.node[99].yCor 1737
config **.node[100].xCor 2595
config **.node[100].yCor 2299
config **.node[101].xCor 2702
config **.node[101].yCor 3419
config **.node[102].xCor 2813
config **.node[102].yCor 3307
config **.node[103].xCor 2638
config **.node[103].yCor 2258
config **.node[104].xCor 2590
config **.node[104].yCor 3125
config **.node[105].xCor 1856
config **.node[105].yCor 2990
config **.node[106].xCor 1894
config **.node[106].yCor 2239
config **.node[107].xCor 383
config **.node[107].yCor 1251
config **.node[108].xCor 3447
config **.node[108].yCor 5489
config **.node[109].xCor 3450
config **.node[109].yCor 5697
config **.node[110].xCor 2719
config **.node[110].yCor 1920
config **.node[111].xCor 2085
config **.node[111].yCor 2389
config **.node[112].xCor 1910
config **.node[112].yCor 2548
config **.node[113].xCor 2069
config **.node[113].yCor 2050
config **.node[114].xCor 2184
config **.node[114].yCor 2209
config **.node[115].xCor 2278
config **.node[115].yCor 2390
config **.node[116].xCor 2249
config **.node[116].yCor 2299
config **.node[117].xCor 2356
config **.node[117].yCor 2303
config **.node[118].xCor 2192
config **.node[118].yCor 2475
config **.node[119].xCor 1720
config **.node[119].yCor 2911
config **.node[120].xCor 2400
config **.node[120].yCor 2887
config **.node[121].xCor 3344
config **.node[121].yCor 1890
config **.node[122].xCor 3136
config **.node[122].yCor 2418
config **.node[123].xCor 3243
config **.node[123].yCor 2525
config **.node[124].xCor 2396
config **.node[124].yCor 1267
config **.node[125].xCor 467
config **.node[125].yCor 1875
config **.node[126].xCor 3506
config **.node[126].yCor 1221
config **.node[127].xCor 1034
config **.node[127].yCor 1474
config **.node[128].xCor 2908
config **.node[128].yCor 1784
config **.node[129].xCor 2876
config **.node[129].yCor 1761
config **.node[130].xCor 2849
config **.node[130].yCor 1795
config **.node[131].xCor 3029
config **.node[131].yCor 1859
config **.node[132].xCor 2924
config **.node[132].yCor 1848
config **.node[133].xCor 3493
config **.node[133].yCor 1559
config **.node[134].xCor 2760
config **.node[134].yCor 1761
config **.node[135].xCor 1644
config **.node[135].yCor 3755
config **.node[136].xCor 1463
config **.node[136].yCor 3432
config **.node[137].xCor 2595
config **.node[137].yCor 2849
config **.node[138].xCor 2581
config **.node[138].yCor 2867
config **.node[139].xCor 2524
config **.node[139].yCor 2911
config **.node[140].xCor 2570
config **.node[140].yCor 2924
config **.node[141].xCor 2676
config **.node[141].yCor 2890
config **.node[142].xCor 2666
config **.node[142].yCor 2876
config **.node[143].xCor 3735
config **.node[143].yCor 1726
config **.node[144].xCor 1637
config **.node[144].yCor 3438

vector 0 TaxiNetwork.node[6] visitedPerTimestep ETV
vector 1 TaxiNetwork.node[100] visitedPerTimestep ETV
vector 2 TaxiNetwork.node[120] visitedPerTimestep ETV
vector 3 TaxiNetwork.node[8] visitedPerTimestep ETV
vector 4 TaxiNetwork.node[91] visitedPerTimestep ETV
vector 5 TaxiNetwork.node[104] visitedPerTimestep ETV
vector 6 TaxiNetwork.node[33] visitedPerTimestep ETV
vector 7 TaxiNetwork.node[19] visitedPerTimestep ETV
vector 8 TaxiNetwork.node[141] visitedPerTimestep ETV
vector 9 TaxiNetwork.node[10] visitedPerTimestep ETV
vector 10 TaxiNetwork.node[123] visitedPerTimestep ETV
vector 11 TaxiNetwork.node[53] visitedPerTimestep ETV
vector 12 TaxiNetwork.node[54] visitedPerTimestep ETV
vector 13 TaxiNetwork.node[93] visitedPerTimestep ETV
vector 14 TaxiNetwork.node[3] visitedPerTimestep ETV
vector 15 TaxiNetwork.node[46] visitedPerTimestep ETV
vector 16 TaxiNetwork.node[44] visitedPerTimestep ETV
vector 17 TaxiNetwork.node[130] visitedPerTimestep ETV
vector 18 TaxiNetwork.node[64] visitedPerTimestep ETV
vector 19 TaxiNetwork.node[143] visitedPerTimestep ETV
vector 20 TaxiNetwork.node[65] visitedPerTimestep ETV
vector 21 TaxiNetwork.node[128] visitedPerTimestep ETV
vector 22 TaxiNetwork.node[70] visitedPerTimestep ETV
vector 23 TaxiNetwork.node[69] visitedPerTimestep ETV
vector 24 TaxiNetwork.node[72] visitedPerTimestep ETV
vector 25 TaxiNetwork.node[79] visitedPerTimestep ETV
vector 26 TaxiNetwork.node[80] visitedPerTimestep ETV
vector 27 TaxiNetwork.node[11] visitedPerTimestep ETV
vector 28 TaxiNetwork.node[129] visitedPerTimestep ETV
vector 29 TaxiNetwork.node[61] visitedPerTimestep ETV
vector 30 TaxiNetwork.node[62] visitedPerTimestep ETV
vector 31 TaxiNetwork.node[63] visitedPerTimestep ETV
vector 32 TaxiNetwork.node[84] visitedPerTimestep ETV
vector 33 TaxiNetwork.node[85] visitedPerTimestep ETV
vector 34 TaxiNetwork.node[87] visitedPerTimestep ETV
vector 35 TaxiNetwork.node[12] visitedPerTimestep ETV
vector 36 TaxiNetwork.node[30] visitedPerTimestep ETV
vector 37 TaxiNetwork.node[140] visitedPerTimestep ETV
vector 38 TaxiNetwork.node[119] visitedPerTimestep ETV
vector 39 TaxiNetwork.node[57] visitedPerTimestep ETV
vector 40 TaxiNetwork.node[5] visitedPerTimestep ETV
vector 41 TaxiNetwork.node[112] visitedPerTimestep ETV
vector 42 TaxiNetwork.node[116] visitedPerTimestep ETV
vector 43 TaxiNetwork.node[58] visitedPerTimestep ETV
vector 44 TaxiNetwork.node[59] visitedPerTimestep ETV
vector 45 TaxiNetwork.node[115] visitedPerTimestep ETV
vector 46 TaxiNetwork.node[86] visitedPerTimestep ETV
vector 47 TaxiNetwork.node[55] visitedPerTimestep ETV
vector 48 TaxiNetwork.node[89] visitedPerTimestep ETV
vector 49 TaxiNetwork.node[9] visitedPerTimestep ETV
vector 50 TaxiNetwork.node[16] visitedPerTimestep ETV
vector 51 TaxiNetwork.node[137] visitedPerTimestep ETV
vector 52 TaxiNetwork.node[4] visitedPerTimestep ETV
vector 53 TaxiNetwork.node[142] visitedPerTimestep ETV
vector 54 TaxiNetwork.node[45] visitedPerTimestep ETV
vector 55 TaxiNetwork.node[14] visitedPerTimestep ETV
vector 56 TaxiNetwork.node[138] visitedPerTimestep ETV
vector 57 TaxiNetwork.node[103] visitedPerTimestep ETV
vector 58 TaxiNetwork.node[139] visitedPerTimestep ETV
vector 59 TaxiNetwork.node[13] visitedPerTimestep ETV
vector 60 TaxiNetwork.node[1] visitedPerTimestep ETV
vector 61 TaxiNetwork.node[90] visitedPerTimestep ETV
vector 62 TaxiNetwork.node[34] visitedPerTimestep ETV
vector 63 TaxiNetwork.node[24] visitedPerTimestep ETV
vector 64 TaxiNetwork.node[26] visitedPerTimestep ETV
vector 65 TaxiNetwork.node[27] visitedPerTimestep ETV
vector 66 TaxiNetwork.node[37] visitedPerTimestep ETV
vector 67 TaxiNetwork.node[88] visitedPerTimestep ETV
vector 68 TaxiNetwork.node[106] visitedPerTimestep ETV
vector 69 TaxiNetwork.node[118] visitedPerTimestep ETV
vector 70 TaxiNetwork.node[15] visitedPerTimestep ETV
vector 71 TaxiNetwork.node[35] visitedPerTimestep ETV
vector 72 TaxiNetwork.node[29] visitedPerTimestep ETV
vector 73 TaxiNetwork.node[83] visitedPerTimestep ETV
vector 74 TaxiNetwork.node[117] visitedPerTimestep ETV
vector 75 TaxiNetwork.node[111] visitedPerTimestep ETV
vector 76 TaxiNetwork.node[20] visitedPerTimestep ETV
vector 77 TaxiNetwork.node[92] visitedPerTimestep ETV
vector 78 TaxiNetwork.node[101] visitedPerTimestep ETV
vector 79 TaxiNetwork.node[52] visitedPerTimestep ETV
vector 80 TaxiNetwork.node[17] visitedPerTimestep ETV
vector 81 TaxiNetwork.node[122] visitedPerTimestep ETV
vector 82 TaxiNetwork.node[94] visitedPerTimestep ETV
vector 83 TaxiNetwork.node[82] visitedPerTimestep ETV
vector 84 TaxiNetwork.node[36] visitedPerTimestep ETV
vector 85 TaxiNetwork.node[114] visitedPerTimestep ETV
vector 86 TaxiNetwork.node[7] visitedPerTimestep ETV
vector 87 TaxiNetwork.node[2] visitedPerTimestep ETV
vector 88 TaxiNetwork.node[39] visitedPerTimestep ETV
vector 89 TaxiNetwork.node[67] visitedPerTimestep ETV
vector 90 TaxiNetwork.node[131] visitedPerTimestep ETV
vector 91 TaxiNetwork.node[66] visitedPerTimestep ETV
vector 92 TaxiNetwork.node[133] visitedPerTimestep ETV
vector 93 TaxiNetwork.node[126] visitedPerTimestep ETV
vector 94 TaxiNetwork.node[32] visitedPerTimestep ETV
vector 95 TaxiNetwork.node[102] visitedPerTimestep ETV
vector 96 TaxiNetwork.node[21] visitedPerTimestep ETV
vector 97 TaxiNetwork.node[22] visitedPerTimestep ETV
vector 98 TaxiNetwork.node[31] visitedPerTimestep ETV
vector 99 TaxiNetwork.node[0] visitedPerTimestep ETV
vector 100 TaxiNetwork.node[40] visitedPerTimestep ETV
vector 101 TaxiNetwork.node[18] visitedPerTimestep ETV
vector 102 TaxiNetwork.node[56] visitedPerTimestep ETV
vector 103 TaxiNetwork.node[144] visitedPerTimestep ETV
vector 104 TaxiNetwork.node[110] visitedPerTimestep ETV
vector 105 TaxiNetwork.node[105] visitedPerTimestep ETV
vector 106 TaxiNetwork.node[51] visitedPerTimestep ETV
vector 107 TaxiNetwork.node[113] visitedPerTimestep ETV
vector 108 TaxiNetwork.node[121] visitedPerTimestep ETV
vector 109 TaxiNetwork.node[60] visitedPerTimestep ETV
vector 110 TaxiNetwork.node[77] visitedPerTimestep ETV
vector 111 TaxiNetwork.node[73] visitedPerTimestep ETV
vector 112 TaxiNetwork.node[75] visitedPerTimestep ETV
vector 113 TaxiNetwork.node[78] visitedPerTimestep ETV
vector 114 TaxiNetwork.node[96] visitedPerTimestep ETV
vector 115 TaxiNetwork.node[134] visitedPerTimestep ETV
vector 116 TaxiNetwork.node[99] visitedPerTimestep ETV
vector 117 TaxiNetwork.node[68] visitedPerTimestep ETV
vector 118 TaxiNetwork.node[132] visitedPerTimestep ETV
vector 119 TaxiNetwork.node[28] visitedPerTimestep ETV
vector 120 TaxiNetwork.node[50] visitedPerTimestep ETV
vector 121 TaxiNetwork.node[135] visitedPerTimestep ETV
vector 122 TaxiNetwork.node[74] visitedPerTimestep ETV
vector 123 TaxiNetwork.node[98] visitedPerTimestep ETV
vector 124 TaxiNetwork.node[136] visitedPerTimestep ETV
vector 125 TaxiNetwork.node[127] visitedPerTimestep ETV
vector 126 TaxiNetwork.node[124] visitedPerTimestep ETV
vector 127 TaxiNetwork.node[95] visitedPerTimestep ETV
vector 128 TaxiNetwork.node[76] visitedPerTimestep ETV
vector 129 TaxiNetwork.node[125] visitedPerTimestep ETV
vector 130 TaxiNetwork.node[71] visitedPerTimestep ETV
vector 131 TaxiNetwork.node[48] visitedPerTimestep ETV
vector 132 TaxiNetwork.node[49] visitedPerTimestep ETV
vector 133 TaxiNetwork.node[108] visitedPerTimestep ETV
vector 134 TaxiNetwork.node[41] visitedPerTimestep ETV
vector 135 TaxiNetwork.node[43] visitedPerTimestep ETV
vector 136 TaxiNetwork.node[109] visitedPerTimestep ETV
0	1	0	1
0	4	0	3
0	80	0	56
0	190	0	85
0	315	0	102
0	324	0	103
0	424	0	107
0	466	0	107
0	475	0	107
0	526	0	108
0	558	0	108
0	579	0	109
0	585	0	109
0	600	0	109
0	608	0	109
0	688	0	109
0	785	0	109
0	907	0	117
0	910	0	117
0	1002	0	119
0	1018	0	119
0	1456	0	120
0	1482	0	122
0	1642	0	123
0	1870	0	125
0	2090	0	131
0	2100	0	131
0	2112	0	131
0	2184	0	131
0	2366	0	131
0	2860	0	133
0	3008	0	133
0	3576	0	136
0	3960	0	136
0	4708	0	136
0	5228	0	136
0	5264	0	136
0	5692	0	136
0	6348	0	142
0	6396	0	142
0	6604	0	142
0	6632	0	142
0	7208	0	142
0	9384	0	143
0	10080	0	143
0	10136	0	143
0	10400	0	143
0	10568	0	143
0	10584	0	143
0	10920	0	143
0	10960	0	144
0	10976	0	144
0	12736	0	144
0	12992	0	144
0	14992	0	144
0	16104	0	144
0	16248	0	144
1	2	0	2
1	404	0	107
1	420	0	107
1	456	0	107
1	547	0	108
1	628	0	109
1	636	0	109
1	846	0	117
1	868	0	117
1	886	0	117
1	912	0	117
1	937	0	119
1	1288	0	120
1	1390	0	120
1	1432	0	120
1	1942	0	130
1	2406	0	131
1	2536	0	131
1	2830	0	133
1	3052	0	133
1	3784	0	136
1	4184	0	136
1	4372	0	136
1	4384	0	136
1	5028	0	136
1	5036	0	136
1	5432	0	136
1	6048	0	142
1	6680	0	142
1	7344	0	142
1	7568	0	142
1	7680	0	142
1	8048	0	142
1	10848	0	143
1	11096	0	144
1	11112	0	144
1	11328	0	144
1	12056	0	144
1	12664	0	144
1	13864	0	144
1	14744	0	144
1	15192	0	144
1	15448	0	144
2	3	0	3
2	43	0	36
2	109	0	70
2	120	0	74
2	204	0	88
2	312	0	102
2	370	0	104
2	380	0	104
2	391	0	107
2	454	0	107
2	459	0	107
2	553	0	108
2	613	0	109
2	644	0	109
2	657	0	109
2	769	0	109
2	839	0	115
2	862	0	117
2	975	0	119
2	978	0	119
2	1026	0	119
2	1106	0	119
2	1114	0	119
2	1134	0	119
2	1398	0	120
2	1530	0	122
2	1626	0	123
2	1714	0	123
2	1916	0	126
2	1930	0	130
2	2262	0	131
2	2320	0	131
2	2580	0	131
2	2740	0	132
2	2862	0	133
2	2876	0	133
2	3532	0	136
2	3868	0	136
2	4472	0	136
2	4836	0	136
2	4948	0	136
2	5292	0	136
2	6876	0	142
2	6964	0	142
2	6996	0	142
2	7464	0	142
2	8168	0	142
2	9232	0	143
2	9744	0	143
2	9920	0	143
2	10096	0	143
2	11280	0	144
2	11752	0	144
2	13016	0	144
2	13152	0	144
2	13608	0	144
2	14032	0	144
2	14824	0	144
3	5	0	4
3	13	0	11
3	136	0	76
3	239	0	94
3	452	0	107
3	525	0	108
3	543	0	108
3	586	0	109
3	711	0	109
3	716	0	109
3	805	0	109
3	833	0	115
3	909	0	117
3	1038	0	119
3	1276	0	120
3	1598	0	123
3	1652	0	123
3	1704	0	123
3	2026	0	131
3	2104	0	131
3	2200	0	131
3	2224	0	131
3	2254	0	131
3	2268	0	131
3	2272	0	131
3	2362	0	131
3	2392	0	131
3	2866	0	133
3	2892	0	133
3	2924	0	133
3	3168	0	133
3	3312	0	136
3	3436	0	136
3	3684	0	136
3	4208	0	136
3	4352	0	136
3	5632	0	136
3	5704	0	136
3	6132	0	142
3	6164	0	142
3	6408	0	142
3	6888	0	142
3	9760	0	143
3	10000	0	143
3	10024	0	143
3	11592	0	144
3	11800	0	144
3	12920	0	144
3	13024	0	144
3	13040	0	144
3	13200	0	144
3	13400	0	144
3	13472	0	144
3	13576	0	144
3	14592	0	144
3	14768	0	144
3	15096	0	144
4	6	0	5
4	188	0	85
4	224	0	89
4	303	0	101
4	378	0	104
4	540	0	108
4	554	0	108
4	556	0	108
4	603	0	109
4	616	0	109
4	725	0	109
4	859	0	117
4	956	0	119
4	1104	0	119
4	1168	0	119
4	1378	0	120
4	1720	0	123
4	1746	0	123
4	2032	0	131
4	2110	0	131
4	2130	0	131
4	2298	0	131
4	2728	0	132
4	2868	0	133
4	3164	0	133
4	4252	0	136
4	4332	0	136
4	4568	0	136
4	5212	0	136
4	5276	0	136
4	5536	0	136
4	5548	0	136
4	5696	0	136
4	5824	0	136
4	5832	0	136
4	6040	0	142
4	6244	0	142
4	7072	0	142
4	7552	0	142
4	7848	0	142
4	8224	0	142
4	10232	0	143
4	10480	0	143
4	11080	0	144
4	11992	0	144
4	12752	0	144
4	12808	0	144
4	12824	0	144
4	13320	0	144
4	13360	0	144
4	13640	0	144
4	14616	0	144
4	15416	0	144
4	16168	0	144
5	7	0	6
5	98	0	67
5	184	0	85
5	195	0	87
5	214	0	89
5	515	0	108
5	538	0	108
5	653	0	109
5	676	0	109
5	686	0	109
5	691	0	109
5	743	0	109
5	897	0	117
5	1082	0	119
5	1176	0	119
5	1340	0	120
5	1372	0	120
5	1438	0	120
5	1618	0	123
5	2052	0	131
5	2280	0	131
5	2308	0	131
5	2570	0	131
5	3224	0	133
5	3492	0	136
5	3500	0	136
5	3540	0	136
5	3772	0	136
5	3832	0	136
5	3896	0	136
5	4744	0	136
5	4840	0	136
5	4876	0	136
5	4884	0	136
5	4896	0	136
5	5456	0	136
5	5564	0	136
5	5604	0	136
5	5664	0	136
5	5844	0	136
5	6092	0	142
5	6124	0	142
5	6172	0	142
5	6208	0	142
5	6744	0	142
5	7544	0	142
5	7776	0	142
5	7984	0	142
5	8208	0	142
5	9496	0	143
5	9720	0	143
5	9896	0	143
5	9936	0	143
5	9960	0	143
5	11712	0	144
5	11776	0	144
5	11960	0	144
5	12456	0	144
5	13008	0	144
5	13144	0	144
5	14192	0	144
5	14224	0	144
5	14248	0	144
5	14880	0	144
6	8	0	7
6	182	0	85
6	217	0	89
6	219	0	89
6	254	0	96
6	289	0	101
6	351	0	104
6	365	0	104
6	396	0	107
6	442	0	107
6	469	0	107
6	773	0	109
6	1156	0	119
6	1332	0	120
6	1450	0	120
6	1492	0	122
6	2172	0	131
6	2220	0	131
6	2306	0	131
6	2414	0	131
6	3952	0	136
6	4748	0	136
6	5164	0	136
6	5500	0	136
6	5544	0	136
6	5552	0	136
6	5584	0	136
6	6176	0	142
6	6808	0	142
6	7624	0	142
6	7896	0	142
6	9360	0	143
6	9416	0	143
6	9904	0	143
6	10776	0	143
6	11000	0	144
6	11064	0	144
6	13064	0	144
6	13232	0	144
6	13712	0	144
6	13784	0	144
6	15032	0	144
6	15880	0	144
7	9	0	8
7	44	0	36
7	128	0	76
7	174	0	82
7	245	0	94
7	366	0	104
7	639	0	109
7	794	0	109
7	864	0	117
7	933	0	119
7	971	0	119
7	1094	0	119
7	1434	0	120
7	1546	0	122
7	1564	0	122
7	1586	0	122
7	1848	0	125
7	1862	0	125
7	1898	0	125
7	2126	0	131
7	2318	0	131
7	2338	0	131
7	2482	0	131
7	2524	0	131
7	2926	0	133
7	3260	0	133
7	3296	0	134
7	3508	0	136
7	4284	0	136
7	4588	0	136
7	4852	0	136
7	5200	0	136
7	5436	0	136
7	5476	0	136
7	5508	0	136
7	6180	0	142
7	6512	0	142
7	6708	0	142
7	6868	0	142
7	7088	0	142
7	9136	0	143
7	10032	0	143
7	10160	0	143
7	10368	0	143
7	10416	0	143
7	10984	0	144
7	12080	0	144
7	12272	0	144
7	14176	0	144
7	14728	0	144
7	14864	0	144
7	15048	0	144
7	15464	0	144
7	15528	0	144
8	10	0	9
8	62	0	48
8	314	0	102
8	398	0	107
8	505	0	107
8	561	0	108
8	626	0	109
8	645	0	109
8	668	0	109
8	683	0	109
8	834	0	115
8	966	0	119
8	977	0	119
8	991	0	119
8	1062	0	119
8	1338	0	120
8	1366	0	120
8	1426	0	120
8	1542	0	122
8	1548	0	122
8	1574	0	122
8	1894	0	125
8	2096	0	131
8	2350	0	131
8	2356	0	131
8	2436	0	131
8	2520	0	131
8	2710	0	132
8	2730	0	132
8	2846	0	133
8	3108	0	133
8	3208	0	133
8	3448	0	136
8	3552	0	136
8	3596	0	136
8	3836	0	136
8	3892	0	136
8	4048	0	136
8	4068	0	136
8	4340	0	136
8	5188	0	136
8	5428	0	136
8	5528	0	136
8	5620	0	136
8	6420	0	142
8	6616	0	142
8	7960	0	142
8	8112	0	142
8	9096	0	143
8	9480	0	143
8	10632	0	143
8	10992	0	144
8	11968	0	144
8	12360	0	144
8	13624	0	144
8	13960	0	144
8	14120	0	144
8	14656	0	144
8	14712	0	144
8	14760	0	144
9	11	0	10
9	118	0	74
9	157	0	80
9	290	0	101
9	399	0	107
9	423	0	107
9	477	0	107
9	530	0	108
9	623	0	109
9	997	0	119
9	1232	0	120
9	1298	0	120
9	1420	0	120
9	1808	0	125
9	1936	0	130
9	2214	0	131
9	2404	0	131
9	3128	0	133
9	4072	0	136
9	4212	0	136
9	4720	0	136
9	5132	0	136
9	5384	0	136
9	5596	0	136
9	6796	0	142
9	6956	0	142
9	9472	0	143
9	9680	0	143
9	10648	0	143
9	10968	0	144
9	11208	0	144
9	11632	0	144
9	13032	0	144
9	13128	0	144
9	13504	0	144
9	13936	0	144
9	14144	0	144
10	12	0	11
10	272	0	99
10	372	0	104
10	727	0	109
10	731	0	109
10	800	0	109
10	1068	0	119
10	1280	0	120
10	1596	0	123
10	1708	0	123
10	1850	0	125
10	2014	0	131
10	2030	0	131
10	2242	0	131
10	2542	0	131
10	2724	0	132
10	2998	0	133
10	3512	0	136
10	3688	0	136
10	4084	0	136
10	4220	0	136
10	4360	0	136
10	4592	0	136
10	5532	0	136
10	7392	0	142
10	7952	0	142
10	10336	0	143
10	11136	0	144
10	11312	0	144
10	11336	0	144
10	12088	0	144
10	12256	0	144
10	12416	0	144
10	12816	0	144
10	13376	0	144
11	14	0	12
11	47	0	38
11	122	0	75
11	318	0	102
11	322	0	103
11	346	0	104
11	348	0	104
11	431	0	107
11	513	0	108
11	546	0	108
11	719	0	109
11	748	0	109
11	881	0	117
11	973	0	119
11	1028	0	119
11	1476	0	122
11	1506	0	122
11	1572	0	122
11	1918	0	127
11	2396	0	131
11	2418	0	131
11	2462	0	131
11	2470	0	131
11	2882	0	133
11	3032	0	133
11	3096	0	133
11	3556	0	136
11	3608	0	136
11	4460	0	136
11	4656	0	136
11	4816	0	136
11	4892	0	136
11	5708	0	136
11	5732	0	136
11	6112	0	142
11	6428	0	142
11	6656	0	142
11	6684	0	142
11	9584	0	143
11	11952	0	144
11	12504	0	144
11	13952	0	144
11	14576	0	144
11	14704	0	144
11	15128	0	144
11	15256	0	144
12	15	0	13
12	113	0	71
12	281	0	99
12	364	0	104
12	467	0	107
12	563	0	108
12	566	0	108
12	640	0	109
12	643	0	109
12	702	0	109
12	1258	0	120
12	1324	0	120
12	1396	0	120
12	1452	0	120
12	1522	0	122
12	1956	0	131
12	2050	0	131
12	2336	0	131
12	2416	0	131
12	2582	0	131
12	3860	0	136
12	3964	0	136
12	3980	0	136
12	4880	0	136
12	4944	0	136
12	4960	0	136
12	4992	0	136
12	5176	0	136
12	5272	0	136
12	5452	0	136
12	6468	0	142
12	6576	0	142
12	6968	0	142
12	7992	0	142
12	8176	0	142
12	9208	0	143
12	9928	0	143
12	10304	0	143
12	10504	0	143
12	11288	0	144
12	12480	0	144
12	12768	0	144
12	13560	0	144
12	14040	0	144
12	14256	0	144
12	14520	0	144
12	15688	0	144
12	15768	0	144
13	16	0	14
13	117	0	74
13	189	0	85
13	268	0	99
13	331	0	104
13	353	0	104
13	356	0	104
13	490	0	107
13	532	0	108
13	655	0	109
13	724	0	109
13	804	0	109
13	888	0	117
13	954	0	119
13	970	0	119
13	993	0	119
13	1098	0	119
13	1320	0	120
13	1724	0	123
13	2024	0	131
13	2154	0	131
13	2226	0	131
13	2478	0	131
13	2716	0	132
13	3064	0	133
13	3404	0	136
13	3800	0	136
13	4936	0	136
13	5216	0	136
13	5416	0	136
13	5424	0	136
13	5700	0	136
13	6156	0	142
13	6184	0	142
13	6200	0	142
13	6352	0	142
13	6404	0	142
13	6568	0	142
13	6608	0	142
13	6772	0	142
13	8032	0	142
13	10312	0	143
13	10360	0	143
13	11760	0	144
13	12136	0	144
13	13080	0	144
13	13216	0	144
13	13264	0	144
13	13808	0	144
13	15016	0	144
13	15544	0	144
13	15992	0	144
14	17	0	15
14	71	0	52
14	78	0	56
14	82	0	57
14	153	0	80
14	215	0	89
14	244	0	94
14	497	0	107
14	564	0	108
14	607	0	109
14	650	0	109
14	661	0	109
14	753	0	109
14	806	0	109
14	901	0	117
14	950	0	119
14	960	0	119
14	998	0	119
14	1000	0	119
14	1078	0	119
14	1118	0	119
14	1140	0	119
14	1238	0	120
14	1350	0	120
14	1512	0	122
14	1880	0	125
14	1902	0	125
14	1908	0	125
14	2062	0	131
14	2070	0	131
14	2374	0	131
14	2444	0	131
14	2550	0	131
14	3144	0	133
14	3504	0	136
14	3640	0	136
14	4572	0	136
14	4620	0	136
14	4940	0	136
14	5256	0	136
14	5600	0	136
14	5668	0	136
14	5740	0	136
14	6120	0	142
14	6148	0	142
14	6196	0	142
14	6252	0	142
14	6392	0	142
14	6516	0	142
14	6848	0	142
14	6872	0	142
14	7160	0	142
14	9576	0	143
14	9984	0	143
14	11824	0	144
14	12344	0	144
14	12904	0	144
14	14488	0	144
14	14584	0	144
14	14720	0	144
14	15064	0	144
15	18	0	16
15	250	0	95
15	486	0	107
15	597	0	109
15	629	0	109
15	692	0	109
15	770	0	109
15	1274	0	120
15	1328	0	120
15	1554	0	122
15	1566	0	122
15	1632	0	123
15	1688	0	123
15	1722	0	123
15	1754	0	123
15	1946	0	130
15	2222	0	131
15	2266	0	131
15	2428	0	131
15	2702	0	132
15	2864	0	133
15	3464	0	136
15	3652	0	136
15	4200	0	136
15	4392	0	136
15	4580	0	136
15	6412	0	142
15	6520	0	142
15	6756	0	142
15	6840	0	142
15	7216	0	142
15	7864	0	142
15	9872	0	143
15	10168	0	143
15	10328	0	143
15	10472	0	143
15	10600	0	143
15	11144	0	144
15	11232	0	144
15	11320	0	144
15	12368	0	144
15	12848	0	144
15	13368	0	144
15	13664	0	144
15	14472	0	144
16	19	0	17
16	67	0	50
16	91	0	61
16	129	0	76
16	134	0	76
16	361	0	104
16	381	0	104
16	412	0	107
16	422	0	107
16	474	0	107
16	570	0	108
16	601	0	109
16	780	0	109
16	802	0	109
16	900	0	117
16	985	0	119
16	994	0	119
16	1170	0	119
16	1498	0	122
16	1532	0	122
16	1734	0	123
16	1996	0	131
16	2016	0	131
16	2178	0	131
16	2244	0	131
16	2282	0	131
16	2360	0	131
16	2500	0	131
16	2540	0	131
16	2544	0	131
16	2840	0	133
16	3104	0	133
16	3180	0	133
16	3628	0	136
16	3760	0	136
16	3884	0	136
16	3992	0	136
16	4324	0	136
16	4660	0	136
16	5248	0	136
16	5812	0	136
16	6140	0	142
16	6336	0	142
16	6492	0	142
16	7112	0	142
16	7352	0	142
16	7880	0	142
16	9624	0	143
16	9816	0	143
16	9944	0	143
16	10256	0	143
16	11928	0	144
16	13168	0	144
16	14024	0	144
16	14232	0	144
16	14752	0	144
17	20	0	18
17	31	0	27
17	813	0	109
17	1990	0	131
17	2686	0	132
17	2910	0	133
17	4140	0	136
17	4156	0	136
17	7032	0	142
17	7296	0	142
17	7336	0	142
17	7360	0	142
17	8520	0	142
17	8536	0	142
17	8768	0	142
17	11448	0	144
17	11480	0	144
17	12008	0	144
17	12184	0	144
18	21	0	19
18	24	0	21
18	232	0	92
18	236	0	94
18	575	0	109
18	821	0	112
18	925	0	118
18	943	0	119
18	1970	0	131
18	1982	0	131
18	2602	0	131
18	2646	0	132
18	2664	0	132
18	2672	0	132
18	2904	0	133
18	2942	0	133
18	2948	0	133
18	2952	0	133
18	2994	0	133
18	4124	0	136
18	4148	0	136
18	6004	0	142
18	7280	0	142
18	8408	0	142
18	8584	0	142
18	8832	0	142
18	11384	0	144
18	11416	0	144
18	14408	0	144
19	22	0	20
19	230	0	91
19	1974	0	131
19	2604	0	131
19	2642	0	132
19	2670	0	132
19	2794	0	132
19	2972	0	133
19	4108	0	136
19	7320	0	142
19	8336	0	142
19	8656	0	142
19	11408	0	144
19	11536	0	144
20	23	0	21
20	2594	0	131
20	2662	0	132
20	2804	0	132
20	2938	0	133
20	2996	0	133
20	4104	0	136
21	25	0	22
21	571	0	108
21	822	0	112
21	929	0	119
21	944	0	119
21	1284	0	120
21	1986	0	131
21	1992	0	131
21	2684	0	132
21	3360	0	136
21	3368	0	136
21	3380	0	136
21	3748	0	136
21	4004	0	136
21	6500	0	142
21	8856	0	142
21	8896	0	142
21	11504	0	144
21	11520	0	144
21	12032	0	144
21	12176	0	144
22	26	0	23
22	35	0	30
22	823	0	112
22	830	0	115
22	2628	0	132
22	2650	0	132
22	2690	0	132
22	2764	0	132
22	2768	0	132
22	2912	0	133
22	4024	0	136
22	6028	0	142
22	7520	0	142
22	8432	0	142
22	8576	0	142
22	8816	0	142
22	8976	0	143
22	12208	0	144
22	14376	0	144
23	27	0	24
23	36	0	30
23	920	0	118
23	2600	0	131
23	2644	0	132
23	2688	0	132
23	2978	0	133
23	3716	0	136
23	5056	0	136
23	5064	0	136
23	7024	0	142
23	8504	0	142
23	8544	0	142
23	8760	0	142
23	8840	0	142
23	11464	0	144
23	11496	0	144
23	14328	0	144
23	14392	0	144
24	28	0	25
24	915	0	117
24	923	0	118
24	2652	0	132
24	2658	0	132
24	2976	0	133
24	2986	0	133
24	6012	0	142
24	7008	0	142
24	8376	0	142
24	8560	0	142
24	8696	0	142
24	8936	0	143
24	8984	0	143
25	29	0	26
25	817	0	110
25	2616	0	131
25	2630	0	132
25	2906	0	133
25	2958	0	133
25	2988	0	133
25	2992	0	133
25	3320	0	136
25	3720	0	136
25	4016	0	136
25	4164	0	136
25	8360	0	142
25	8448	0	142
25	8496	0	142
25	8640	0	142
25	8680	0	142
25	8776	0	142
25	8920	0	143
25	9048	0	143
25	12192	0	144
25	12232	0	144
26	30	0	27
26	939	0	119
26	2618	0	131
26	2624	0	132
26	3696	0	136
26	4168	0	136
26	5060	0	136
26	6296	0	142
26	6328	0	142
26	8912	0	143
26	11456	0	144
26	11488	0	144
27	32	0	28
27	74	0	53
27	147	0	80
27	207	0	88
27	209	0	88
27	373	0	104
27	417	0	107
27	432	0	107
27	438	0	107
27	502	0	107
27	508	0	107
27	518	0	108
27	681	0	109
27	981	0	119
27	1086	0	119
27	1124	0	119
27	1162	0	119
27	1286	0	120
27	1354	0	120
27	1640	0	123
27	1676	0	123
27	1778	0	123
27	1844	0	125
27	1922	0	129
27	1994	0	131
27	2116	0	131
27	2240	0	131
27	2532	0	131
27	2878	0	133
27	3280	0	133
27	4136	0	136
27	4292	0	136
27	4504	0	136
27	4828	0	136
27	6116	0	142
27	6344	0	142
27	6368	0	142
27	6416	0	142
27	6452	0	142
27	6628	0	142
27	6652	0	142
27	7128	0	142
27	9128	0	143
27	9600	0	143
27	9616	0	143
27	9768	0	143
27	9848	0	143
27	10008	0	143
27	10528	0	143
27	11128	0	144
27	11600	0	144
27	12840	0	144
27	13384	0	144
27	13488	0	144
27	13920	0	144
27	15336	0	144
28	33	0	29
28	815	0	109
28	2758	0	132
28	2770	0	132
28	2774	0	132
28	4000	0	136
28	8616	0	142
28	8712	0	142
28	11432	0	144
28	11560	0	144
28	12224	0	144
29	34	0	30
29	235	0	94
29	818	0	110
29	941	0	119
29	2592	0	131
29	2696	0	132
29	2780	0	132
29	2796	0	132
29	2820	0	133
29	2962	0	133
29	3376	0	136
29	4176	0	136
29	6000	0	142
29	7368	0	142
29	8304	0	142
29	8384	0	142
29	8592	0	142
29	14384	0	144
30	37	0	31
30	574	0	109
30	1978	0	131
30	2654	0	132
30	2660	0	132
30	2772	0	132
30	2802	0	132
30	2814	0	133
30	2970	0	133
30	4008	0	136
30	4160	0	136
30	5996	0	142
30	6308	0	142
30	8320	0	142
30	8792	0	142
30	8944	0	143
31	38	0	32
31	576	0	109
31	814	0	109
31	1976	0	131
31	2612	0	131
31	2760	0	132
31	2776	0	132
31	2800	0	132
31	2810	0	133
31	2822	0	133
31	2914	0	133
31	2950	0	133
31	4100	0	136
31	4424	0	136
31	7272	0	142
31	7328	0	142
31	8800	0	142
31	8848	0	142
31	8864	0	142
31	11544	0	144
31	12248	0	144
32	39	0	33
32	61	0	48
32	246	0	94
32	301	0	101
32	487	0	107
32	622	0	109
32	638	0	109
32	776	0	109
32	856	0	117
32	1076	0	119
32	1174	0	119
32	1634	0	123
32	1940	0	130
32	2000	0	131
32	2922	0	133
32	3284	0	133
32	3412	0	136
32	3520	0	136
32	3988	0	136
32	4416	0	136
32	4540	0	136
32	4548	0	136
32	4732	0	136
32	5328	0	136
32	5624	0	136
32	5948	0	142
32	6792	0	142
32	9264	0	143
32	9696	0	143
32	10832	0	143
32	11872	0	144
32	12640	0	144
32	13296	0	144
32	13392	0	144
32	14928	0	144
33	40	0	34
33	64	0	49
33	355	0	104
33	358	0	104
33	414	0	107
33	462	0	107
33	483	0	107
33	533	0	108
33	617	0	109
33	730	0	109
33	732	0	109
33	755	0	109
33	801	0	109
33	988	0	119
33	990	0	119
33	1172	0	119
33	1194	0	119
33	1270	0	120
33	1516	0	122
33	1552	0	122
33	2002	0	131
33	2182	0	131
33	2312	0	131
33	2408	0	131
33	2558	0	131
33	3056	0	133
33	3172	0	133
33	3300	0	135
33	3776	0	136
33	3840	0	136
33	4280	0	136
33	4928	0	136
33	5580	0	136
33	5804	0	136
33	5848	0	136
33	6036	0	142
33	6152	0	142
33	6224	0	142
33	6960	0	142
33	7784	0	142
33	9120	0	143
33	9432	0	143
33	10264	0	143
33	10376	0	143
33	12448	0	144
33	12544	0	144
33	12912	0	144
33	12952	0	144
33	14016	0	144
33	14152	0	144
33	14776	0	144
33	16232	0	144
34	41	0	35
34	90	0	61
34	170	0	81
34	489	0	107
34	646	0	109
34	1100	0	119
34	1146	0	119
34	1240	0	120
34	1352	0	120
34	1600	0	123
34	2020	0	131
34	2086	0	131
34	2476	0	131
34	2572	0	131
34	3156	0	133
34	3204	0	133
34	3396	0	136
34	3516	0	136
34	3824	0	136
34	3904	0	136
34	4188	0	136
34	4232	0	136
34	4276	0	136
34	4736	0	136
34	5008	0	136
34	6060	0	142
34	6484	0	142
34	6648	0	142
34	6980	0	142
34	8120	0	142
34	9968	0	143
34	10608	0	143
34	11152	0	144
34	11984	0	144
34	12936	0	144
34	12968	0	144
34	12984	0	144
34	13280	0	144
34	13304	0	144
34	13544	0	144
34	13904	0	144
34	15656	0	144
34	15736	0	144
34	15944	0	144
34	16120	0	144
35	42	0	36
35	119	0	74
35	127	0	76
35	150	0	80
35	193	0	87
35	482	0	107
35	491	0	107
35	529	0	108
35	605	0	109
35	647	0	109
35	783	0	109
35	853	0	117
35	964	0	119
35	1306	0	120
35	1374	0	120
35	1424	0	120
35	1428	0	120
35	1488	0	122
35	1624	0	123
35	1816	0	125
35	2084	0	131
35	2480	0	131
35	2512	0	131
35	2560	0	131
35	3160	0	133
35	3272	0	133
35	3528	0	136
35	4388	0	136
35	4704	0	136
35	5012	0	136
35	5644	0	136
35	5960	0	142
35	6748	0	142
35	7080	0	142
35	7576	0	142
35	8160	0	142
35	8232	0	142
35	9552	0	143
35	10128	0	143
35	11224	0	144
35	12064	0	144
35	12672	0	144
35	13856	0	144
35	14160	0	144
36	45	0	37
36	162	0	81
36	165	0	81
36	167	0	81
36	197	0	87
36	274	0	99
36	453	0	107
36	472	0	107
36	641	0	109
36	670	0	109
36	675	0	109
36	713	0	109
36	744	0	109
36	962	0	119
36	1348	0	120
36	1658	0	123
36	1674	0	123
36	1678	0	123
36	1686	0	123
36	1878	0	125
36	1954	0	131
36	2132	0	131
36	2174	0	131
36	2228	0	131
36	2348	0	131
36	2440	0	131
36	2546	0	131
36	2832	0	133
36	3216	0	133
36	3668	0	136
36	3976	0	136
36	5088	0	136
36	5268	0	136
36	5372	0	136
36	5516	0	136
36	5656	0	136
36	5808	0	136
36	5896	0	140
36	6128	0	142
36	6160	0	142
36	6704	0	142
36	6732	0	142
36	6812	0	142
36	6892	0	142
36	7648	0	142
36	7664	0	142
36	10176	0	143
36	10616	0	143
36	12608	0	144
36	13992	0	144
36	14064	0	144
36	14200	0	144
36	14504	0	144
37	46	0	38
37	87	0	61
37	151	0	80
37	350	0	104
37	397	0	107
37	443	0	107
37	478	0	107
37	500	0	107
37	611	0	109
37	710	0	109
37	722	0	109
37	735	0	109
37	760	0	109
37	857	0	117
37	878	0	117
37	1030	0	119
37	1402	0	120
37	1502	0	122
37	1610	0	123
37	1860	0	125
37	1920	0	128
37	2202	0	131
37	2358	0	131
37	2426	0	131
37	2488	0	131
37	2842	0	133
37	3060	0	133
37	3588	0	136
37	3856	0	136
37	3956	0	136
37	4228	0	136
37	4368	0	136
37	4536	0	136
37	4676	0	136
37	5244	0	136
37	5392	0	136
37	5852	0	136
37	5972	0	142
37	6356	0	142
37	6532	0	142
37	6924	0	142
37	6976	0	142
37	7480	0	142
37	7536	0	142
37	7672	0	142
37	7800	0	142
37	8040	0	142
37	8192	0	142
37	9272	0	143
37	9376	0	143
37	9424	0	143
37	9568	0	143
37	9688	0	143
37	10216	0	143
37	10456	0	143
37	10496	0	143
37	10512	0	143
37	11896	0	144
37	12976	0	144
37	13288	0	144
37	13336	0	144
37	13464	0	144
37	13816	0	144
37	14440	0	144
37	14936	0	144
37	15400	0	144
38	48	0	39
38	143	0	80
38	328	0	104
38	1056	0	119
38	1108	0	119
38	1112	0	119
38	1472	0	122
38	1478	0	122
38	1742	0	123
38	1792	0	123
38	2584	0	131
38	2884	0	133
38	3864	0	136
38	4444	0	136
38	4780	0	136
38	4812	0	136
38	4916	0	136
38	4972	0	136
38	5932	0	142
38	9240	0	143
39	49	0	40
39	51	0	41
39	53	0	42
39	323	0	103
39	385	0	105
39	495	0	107
39	1408	0	120
39	1788	0	123
39	2398	0	131
39	4308	0	136
39	4520	0	136
39	4528	0	136
39	4784	0	136
39	5776	0	136
39	5784	0	136
39	6560	0	142
39	12696	0	144
39	13440	0	144
39	14984	0	144
40	50	0	41
40	60	0	48
40	125	0	76
40	130	0	76
40	133	0	76
40	240	0	94
40	293	0	101
40	368	0	104
40	485	0	107
40	514	0	108
40	521	0	108
40	592	0	109
40	884	0	117
40	934	0	119
40	1102	0	119
40	1122	0	119
40	1422	0	120
40	1684	0	123
40	1700	0	123
40	1706	0	123
40	1958	0	131
40	2068	0	131
40	2122	0	131
40	2402	0	131
40	2502	0	131
40	2566	0	131
40	2574	0	131
40	2734	0	132
40	3308	0	136
40	3984	0	136
40	4044	0	136
40	4312	0	136
40	4888	0	136
40	5072	0	136
40	5080	0	136
40	5204	0	136
40	5220	0	136
40	5968	0	142
40	6212	0	142
40	6580	0	142
40	6764	0	142
40	6884	0	142
40	7096	0	142
40	8136	0	142
40	9512	0	143
40	9656	0	143
40	9728	0	143
40	10056	0	143
40	10952	0	144
40	11736	0	144
40	11944	0	144
40	12408	0	144
40	12928	0	144
40	13800	0	144
40	13824	0	144
40	14608	0	144
40	15320	0	144
41	52	0	42
41	317	0	102
41	751	0	109
41	880	0	117
41	959	0	119
41	1110	0	119
41	1474	0	122
41	1480	0	122
41	1790	0	123
41	3424	0	136
41	4304	0	136
41	4440	0	136
41	4448	0	136
41	9320	0	143
41	9832	0	143
41	10104	0	143
41	12728	0	144
41	14296	0	144
42	54	0	43
42	100	0	68
42	106	0	70
42	200	0	87
42	316	0	102
42	409	0	107
42	437	0	107
42	544	0	108
42	549	0	108
42	720	0	109
42	899	0	117
42	904	0	117
42	906	0	117
42	982	0	119
42	1570	0	122
42	1776	0	123
42	1842	0	125
42	1914	0	126
42	1964	0	131
42	2120	0	131
42	2210	0	131
42	2454	0	131
42	2836	0	133
42	3192	0	133
42	3432	0	136
42	3564	0	136
42	3612	0	136
42	3624	0	136
42	3636	0	136
42	4488	0	136
42	4668	0	136
42	5724	0	136
42	5796	0	136
42	6432	0	142
42	6544	0	142
42	6592	0	142
42	7104	0	142
42	7144	0	142
42	9736	0	143
42	9856	0	143
42	10112	0	143
42	11616	0	144
42	14536	0	144
42	15368	0	144
43	55	0	44
43	2456	0	131
43	2588	0	131
43	5044	0	136
43	9080	0	143
43	9784	0	143
43	14312	0	144
43	14688	0	144
43	16040	0	144
44	56	0	45
44	107	0	70
44	435	0	107
44	582	0	109
44	1578	0	122
44	1838	0	125
44	2744	0	132
44	5348	0	136
44	6588	0	142
44	6596	0	142
44	6692	0	142
45	57	0	46
45	104	0	70
45	108	0	70
45	123	0	75
45	360	0	104
45	384	0	105
45	523	0	108
45	580	0	109
45	649	0	109
45	750	0	109
45	847	0	117
45	879	0	117
45	1290	0	120
45	1410	0	120
45	1576	0	122
45	1738	0	123
45	1786	0	123
45	1836	0	125
45	1868	0	125
45	1912	0	126
45	2074	0	131
45	2732	0	132
45	2742	0	132
45	2746	0	132
45	2888	0	133
45	4064	0	136
45	4300	0	136
45	4432	0	136
45	4532	0	136
45	5260	0	136
45	5352	0	136
45	6280	0	142
45	6380	0	142
45	6600	0	142
45	8064	0	142
45	8264	0	142
45	9088	0	143
45	9312	0	143
45	10448	0	143
45	13432	0	144
45	13480	0	144
45	13584	0	144
45	14088	0	144
45	14112	0	144
45	14304	0	144
45	14968	0	144
46	58	0	47
46	73	0	53
46	79	0	56
46	173	0	82
46	276	0	99
46	300	0	101
46	354	0	104
46	400	0	107
46	473	0	107
46	501	0	107
46	519	0	108
46	522	0	108
46	528	0	108
46	539	0	108
46	604	0	109
46	789	0	109
46	807	0	109
46	876	0	117
46	903	0	117
46	999	0	119
46	1088	0	119
46	1202	0	119
46	1296	0	120
46	1606	0	123
46	1614	0	123
46	1630	0	123
46	1766	0	123
46	1890	0	125
46	1998	0	131
46	2108	0	131
46	2170	0	131
46	2438	0	131
46	2446	0	131
46	2494	0	131
46	2498	0	131
46	2554	0	131
46	2854	0	133
46	3132	0	133
46	3416	0	136
46	3680	0	136
46	4932	0	136
46	5020	0	136
46	5308	0	136
46	5404	0	136
46	5464	0	136
46	5680	0	136
46	5764	0	136
46	6384	0	142
46	6508	0	142
46	6864	0	142
46	7064	0	142
46	7416	0	142
46	7688	0	142
46	9288	0	143
46	9976	0	143
46	10624	0	143
46	11184	0	144
46	11248	0	144
46	11264	0	144
46	11608	0	144
46	11912	0	144
46	13136	0	144
46	13552	0	144
46	13656	0	144
46	13672	0	144
46	13848	0	144
46	14448	0	144
47	59	0	48
47	69	0	51
47	141	0	79
47	187	0	85
47	325	0	103
47	327	0	104
47	344	0	104
47	562	0	108
47	610	0	109
47	654	0	109
47	704	0	109
47	746	0	109
47	768	0	109
47	976	0	119
47	1120	0	119
47	1252	0	120
47	1460	0	120
47	1744	0	123
47	1904	0	125
47	1952	0	131
47	2370	0	131
47	2568	0	131
47	3148	0	133
47	3848	0	136
47	4344	0	136
47	4400	0	136
47	4752	0	136
47	4904	0	136
47	5232	0	136
47	5468	0	136
47	5492	0	136
47	6088	0	142
47	6232	0	142
47	7424	0	142
47	7608	0	142
47	9352	0	143
47	11784	0	144
47	12392	0	144
47	12744	0	144
47	14856	0	144
47	14896	0	144
48	63	0	49
48	66	0	50
48	111	0	70
48	210	0	88
48	226	0	89
48	507	0	107
48	560	0	108
48	569	0	108
48	596	0	109
48	620	0	109
48	634	0	109
48	656	0	109
48	680	0	109
48	709	0	109
48	764	0	109
48	787	0	109
48	792	0	109
48	840	0	115
48	850	0	117
48	1144	0	119
48	1268	0	120
48	1302	0	120
48	1416	0	120
48	1436	0	120
48	1592	0	123
48	1732	0	123
48	1852	0	125
48	1944	0	130
48	2008	0	131
48	2098	0	131
48	2218	0	131
48	2284	0	131
48	2390	0	131
48	2928	0	133
48	3020	0	133
48	3908	0	136
48	4268	0	136
48	4408	0	136
48	4500	0	136
48	4728	0	136
48	5336	0	136
48	5944	0	142
48	6044	0	142
48	6760	0	142
48	6912	0	142
48	7768	0	142
48	7816	0	142
48	7968	0	142
48	9400	0	143
48	10912	0	143
48	11168	0	144
48	11304	0	144
48	11848	0	144
48	11864	0	144
48	11920	0	144
48	12960	0	144
48	13048	0	144
48	13208	0	144
48	14432	0	144
48	14496	0	144
48	14640	0	144
49	65	0	50
49	152	0	80
49	159	0	80
49	238	0	94
49	271	0	99
49	305	0	101
49	371	0	104
49	402	0	107
49	416	0	107
49	460	0	107
49	480	0	107
49	671	0	109
49	803	0	109
49	1692	0	123
49	1718	0	123
49	1752	0	123
49	2058	0	131
49	2198	0	131
49	2252	0	131
49	2264	0	131
49	2848	0	133
49	3176	0	133
49	3392	0	136
49	4640	0	136
49	5076	0	136
49	5196	0	136
49	5460	0	136
49	5504	0	136
49	5816	0	136
49	6528	0	142
49	6988	0	142
49	7944	0	142
49	9296	0	143
49	9440	0	143
49	9536	0	143
49	9664	0	143
49	9712	0	143
49	11880	0	144
49	12104	0	144
49	12592	0	144
49	12832	0	144
49	12880	0	144
49	13184	0	144
49	13496	0	144
49	13976	0	144
49	14632	0	144
50	68	0	51
50	140	0	79
50	161	0	81
50	171	0	81
50	205	0	88
50	392	0	107
50	465	0	107
50	642	0	109
50	718	0	109
50	757	0	109
50	841	0	115
50	952	0	119
50	965	0	119
50	1070	0	119
50	1084	0	119
50	1128	0	119
50	1248	0	120
50	1278	0	120
50	1360	0	120
50	1648	0	123
50	1710	0	123
50	1948	0	130
50	2422	0	131
50	2738	0	132
50	2834	0	133
50	2874	0	133
50	2920	0	133
50	3092	0	133
50	3288	0	133
50	3476	0	136
50	3792	0	136
50	3876	0	136
50	4240	0	136
50	4484	0	136
50	4584	0	136
50	4700	0	136
50	5192	0	136
50	5320	0	136
50	5380	0	136
50	5768	0	136
50	6192	0	142
50	6700	0	142
50	6844	0	142
50	6908	0	142
50	6992	0	142
50	7400	0	142
50	8144	0	142
50	10072	0	143
50	10544	0	143
50	11176	0	144
50	12552	0	144
50	13592	0	144
50	14136	0	144
50	15160	0	144
50	16152	0	144
51	70	0	52
51	135	0	76
51	359	0	104
51	441	0	107
51	492	0	107
51	535	0	108
51	652	0	109
51	745	0	109
51	871	0	117
51	987	0	119
51	1006	0	119
51	1048	0	119
51	1266	0	120
51	1342	0	120
51	1394	0	120
51	1486	0	122
51	1622	0	123
51	1736	0	123
51	1950	0	131
51	2066	0	131
51	2176	0	131
51	2196	0	131
51	2212	0	131
51	2238	0	131
51	2250	0	131
51	2352	0	131
51	2394	0	131
51	2452	0	131
51	2704	0	132
51	2858	0	133
51	3036	0	133
51	3044	0	133
51	3524	0	136
51	3548	0	136
51	3580	0	136
51	3664	0	136
51	3788	0	136
51	4196	0	136
51	4468	0	136
51	5004	0	136
51	5180	0	136
51	5288	0	136
51	5524	0	136
51	5592	0	136
51	5756	0	136
51	5940	0	142
51	6076	0	142
51	6216	0	142
51	6268	0	142
51	6804	0	142
51	7936	0	142
51	7976	0	142
51	8000	0	142
51	9304	0	143
51	9408	0	143
51	9448	0	143
51	10120	0	143
51	11936	0	144
51	13224	0	144
51	13888	0	144
51	14264	0	144
51	14280	0	144
51	14736	0	144
51	14888	0	144
51	15752	0	144
52	72	0	53
52	194	0	87
52	251	0	95
52	341	0	104
52	624	0	109
52	754	0	109
52	781	0	109
52	875	0	117
52	1036	0	119
52	1620	0	123
52	1690	0	123
52	1858	0	125
52	2424	0	131
52	2450	0	131
52	2506	0	131
52	2530	0	131
52	3048	0	133
52	3256	0	133
52	4328	0	136
52	4632	0	136
52	4684	0	136
52	4856	0	136
52	5568	0	136
52	5744	0	136
52	6460	0	142
52	10088	0	143
52	10408	0	143
52	10808	0	143
52	10840	0	143
52	11808	0	144
52	12152	0	144
52	12600	0	144
52	12888	0	144
52	14216	0	144
52	15000	0	144
53	75	0	54
53	131	0	76
53	145	0	80
53	175	0	82
53	270	0	99
53	304	0	101
53	310	0	102
53	330	0	104
53	374	0	104
53	421	0	107
53	464	0	107
53	468	0	107
53	479	0	107
53	537	0	108
53	698	0	109
53	726	0	109
53	729	0	109
53	849	0	117
53	995	0	119
53	1016	0	119
53	1164	0	119
53	1226	0	120
53	1412	0	120
53	1748	0	123
53	1768	0	123
53	1928	0	130
53	2056	0	131
53	2310	0	131
53	2522	0	131
53	2538	0	131
53	2556	0	131
53	3000	0	133
53	3536	0	136
53	4652	0	136
53	4820	0	136
53	5952	0	142
53	6068	0	142
53	6456	0	142
53	6836	0	142
53	6880	0	142
53	6972	0	142
53	7496	0	142
53	7920	0	142
53	8056	0	142
53	8128	0	142
53	9256	0	143
53	9456	0	143
53	9672	0	143
53	10272	0	143
53	10784	0	143
53	10816	0	143
53	11576	0	144
53	12432	0	144
53	13696	0	144
53	14168	0	144
53	15144	0	144
53	15496	0	144
53	15576	0	144
53	16008	0	144
54	76	0	55
54	163	0	81
54	206	0	88
54	273	0	99
54	282	0	99
54	340	0	104
54	357	0	104
54	481	0	107
54	527	0	108
54	552	0	108
54	565	0	108
54	664	0	109
54	697	0	109
54	733	0	109
54	851	0	117
54	951	0	119
54	989	0	119
54	1010	0	119
54	1294	0	120
54	1616	0	123
54	1698	0	123
54	1702	0	123
54	1896	0	125
54	1900	0	125
54	2230	0	131
54	2332	0	131
54	2420	0	131
54	2510	0	131
54	3184	0	133
54	3228	0	133
54	3900	0	136
54	4056	0	136
54	4224	0	136
54	4396	0	136
54	4456	0	136
54	4496	0	136
54	4556	0	136
54	4672	0	136
54	4696	0	136
54	4716	0	136
54	5284	0	136
54	6052	0	142
54	6144	0	142
54	6256	0	142
54	6488	0	142
54	6524	0	142
54	7792	0	142
54	9632	0	143
54	10240	0	143
54	11624	0	144
54	12280	0	144
54	13528	0	144
54	13648	0	144
54	14904	0	144
54	15080	0	144
54	15208	0	144
55	77	0	56
55	126	0	76
55	156	0	80
55	309	0	102
55	345	0	104
55	363	0	104
55	427	0	107
55	430	0	107
55	439	0	107
55	451	0	107
55	541	0	108
55	672	0	109
55	779	0	109
55	788	0	109
55	791	0	109
55	796	0	109
55	799	0	109
55	972	0	119
55	1066	0	119
55	1380	0	120
55	1716	0	123
55	1874	0	125
55	2106	0	131
55	2216	0	131
55	2258	0	131
55	2328	0	131
55	2372	0	131
55	2548	0	131
55	2722	0	132
55	2852	0	133
55	3028	0	133
55	4088	0	136
55	4492	0	136
55	4956	0	136
55	5016	0	136
55	5828	0	136
55	6636	0	142
55	6752	0	142
55	6900	0	142
55	8200	0	142
55	8248	0	142
55	10344	0	143
55	10488	0	143
55	10800	0	143
55	11768	0	144
55	12536	0	144
55	12648	0	144
55	12872	0	144
55	13520	0	144
55	15288	0	144
55	15640	0	144
56	81	0	57
56	89	0	61
56	183	0	85
56	296	0	101
56	448	0	107
56	476	0	107
56	782	0	109
56	784	0	109
56	873	0	117
56	980	0	119
56	1092	0	119
56	1136	0	119
56	1158	0	119
56	1430	0	120
56	1520	0	122
56	1682	0	123
56	1814	0	125
56	2078	0	131
56	2206	0	131
56	2256	0	131
56	2274	0	131
56	2334	0	131
56	2434	0	131
56	3200	0	133
56	3592	0	136
56	3656	0	136
56	3780	0	136
56	3880	0	136
56	4248	0	136
56	4464	0	136
56	5024	0	136
56	5540	0	136
56	6240	0	142
56	6284	0	142
56	6788	0	142
56	6852	0	142
56	7912	0	142
56	9640	0	143
56	10040	0	143
56	10280	0	143
56	10864	0	143
56	11816	0	144
56	12144	0	144
56	13352	0	144
56	13912	0	144
56	13984	0	144
56	14208	0	144
56	15784	0	144
56	16136	0	144
57	83	0	58
57	110	0	70
57	158	0	80
57	198	0	87
57	291	0	101
57	298	0	101
57	447	0	107
57	545	0	108
57	578	0	109
57	593	0	109
57	832	0	115
57	935	0	119
57	945	0	119
57	1012	0	119
57	1052	0	119
57	1568	0	122
57	1602	0	123
57	1892	0	125
57	2018	0	131
57	2180	0	131
57	2208	0	131
57	2314	0	131
57	2326	0	131
57	2330	0	131
57	2474	0	131
57	2880	0	133
57	3012	0	133
57	3196	0	133
57	3336	0	136
57	3384	0	136
57	3468	0	136
57	3572	0	136
57	3920	0	136
57	3996	0	136
57	4032	0	136
57	4060	0	136
57	4364	0	136
57	4560	0	136
57	4576	0	136
57	5068	0	136
57	5356	0	136
57	5976	0	142
57	6032	0	142
57	6272	0	142
57	6504	0	142
57	6644	0	142
57	7136	0	142
57	7200	0	142
57	7512	0	142
57	7528	0	142
57	7872	0	142
57	8152	0	142
57	9464	0	143
57	9808	0	143
57	10048	0	143
57	11568	0	144
57	12352	0	144
57	12864	0	144
57	12896	0	144
57	14544	0	144
58	84	0	59
58	88	0	61
58	166	0	81
58	202	0	87
58	275	0	99
58	375	0	104
58	403	0	107
58	484	0	107
58	488	0	107
58	498	0	107
58	682	0	109
58	867	0	117
58	1072	0	119
58	1236	0	120
58	1260	0	120
58	1510	0	122
58	2124	0	131
58	2316	0	131
58	2472	0	131
58	2706	0	132
58	2712	0	132
58	3088	0	133
58	3400	0	136
58	3620	0	136
58	3644	0	136
58	5000	0	136
58	5388	0	136
58	5396	0	136
58	5648	0	136
58	5772	0	136
58	6904	0	142
58	8072	0	142
58	8240	0	142
58	9544	0	143
58	9992	0	143
58	10208	0	143
58	10440	0	143
58	11192	0	144
58	11256	0	144
58	11296	0	144
58	11976	0	144
58	12384	0	144
58	13456	0	144
58	13536	0	144
58	14184	0	144
58	14464	0	144
58	14920	0	144
58	15352	0	144
58	15592	0	144
58	16088	0	144
59	85	0	60
59	146	0	80
59	295	0	101
59	311	0	102
59	362	0	104
59	445	0	107
59	463	0	107
59	517	0	108
59	637	0	109
59	848	0	117
59	858	0	117
59	870	0	117
59	908	0	117
59	946	0	119
59	1080	0	119
59	1190	0	119
59	1454	0	120
59	1458	0	120
59	1582	0	122
59	1646	0	123
59	1696	0	123
59	1834	0	125
59	2204	0	131
59	2496	0	131
59	2838	0	133
59	3100	0	133
59	3388	0	136
59	3672	0	136
59	5312	0	136
59	5368	0	136
59	5576	0	136
59	5684	0	136
59	5800	0	136
59	5892	0	140
59	6204	0	142
59	6364	0	142
59	6916	0	142
59	8096	0	142
59	8272	0	142
59	10192	0	143
59	10392	0	143
59	10576	0	143
59	11160	0	144
59	12680	0	144
59	13312	0	144
59	14080	0	144
59	14568	0	144
59	15848	0	144
60	86	0	61
60	149	0	80
60	164	0	81
60	208	0	88
60	542	0	108
60	663	0	109
60	756	0	109
60	762	0	109
60	947	0	119
60	967	0	119
60	1074	0	119
60	1264	0	120
60	1500	0	122
60	1638	0	123
60	1654	0	123
60	1694	0	123
60	1762	0	123
60	1934	0	130
60	2012	0	131
60	2060	0	131
60	2246	0	131
60	2354	0	131
60	2514	0	131
60	2720	0	132
60	2856	0	133
60	3120	0	133
60	3252	0	133
60	3600	0	136
60	4552	0	136
60	4564	0	136
60	4608	0	136
60	4624	0	136
60	4740	0	136
60	5208	0	136
60	5964	0	142
60	6188	0	142
60	6480	0	142
60	7224	0	142
60	8280	0	142
60	10144	0	143
60	10424	0	143
60	10824	0	143
60	12128	0	144
60	12560	0	144
60	13512	0	144
60	13840	0	144
60	13968	0	144
60	15800	0	144
61	92	0	62
61	168	0	81
61	277	0	99
61	284	0	100
61	302	0	101
61	705	0	109
61	708	0	109
61	717	0	109
61	1166	0	119
61	1204	0	119
61	1262	0	120
61	1326	0	120
61	1364	0	120
61	1760	0	123
61	1926	0	130
61	2236	0	131
61	2432	0	131
61	2518	0	131
61	3236	0	133
61	3248	0	133
61	3496	0	136
61	3604	0	136
61	4404	0	136
61	4612	0	136
61	4996	0	136
61	5128	0	136
61	5184	0	136
61	5304	0	136
61	5588	0	136
61	5748	0	136
61	6388	0	142
61	6784	0	142
61	7176	0	142
61	7592	0	142
61	7904	0	142
61	10432	0	143
61	10560	0	143
61	10592	0	143
61	10672	0	143
61	10688	0	143
61	12288	0	144
61	12472	0	144
61	12496	0	144
61	12616	0	144
61	12776	0	144
61	13096	0	144
61	13248	0	144
61	13568	0	144
61	13832	0	144
61	14008	0	144
61	14792	0	144
61	14832	0	144
61	15272	0	144
61	15512	0	144
61	15864	0	144
62	93	0	63
62	186	0	85
62	220	0	89
62	285	0	100
62	388	0	107
62	700	0	109
62	836	0	115
62	1180	0	119
62	1830	0	125
62	2144	0	131
62	4756	0	136
62	5116	0	136
62	5172	0	136
62	7440	0	142
62	9160	0	143
62	11056	0	144
62	11648	0	144
62	12792	0	144
62	16328	0	145
63	94	0	64
63	179	0	84
63	258	0	96
63	260	0	96
63	3484	0	136
63	5144	0	136
63	5152	0	136
63	9152	0	143
63	11016	0	144
63	13736	0	144
64	95	0	65
64	892	0	117
64	1218	0	120
64	1666	0	123
64	5108	0	136
64	5872	0	137
64	11024	0	144
64	11696	0	144
65	96	0	66
65	180	0	84
65	222	0	89
65	257	0	96
65	891	0	117
65	2382	0	131
65	3808	0	136
65	5156	0	136
65	5168	0	136
65	5444	0	136
65	6716	0	142
65	6944	0	142
65	7632	0	142
65	9168	0	143
65	11656	0	144
65	12304	0	144
65	15896	0	144
66	97	0	67
66	213	0	89
66	259	0	96
66	336	0	104
66	837	0	115
66	893	0	117
66	896	0	117
66	1334	0	120
66	2148	0	131
66	2152	0	131
66	2278	0	131
66	2302	0	131
66	2378	0	131
66	5148	0	136
66	6720	0	142
66	6740	0	142
66	12328	0	144
66	13088	0	144
66	13728	0	144
66	13776	0	144
66	14840	0	144
66	16296	0	144
67	99	0	68
67	105	0	70
67	148	0	80
67	155	0	80
67	169	0	81
67	292	0	101
67	377	0	104
67	457	0	107
67	674	0	109
67	936	0	119
67	948	0	119
67	1032	0	119
67	1126	0	119
67	1186	0	119
67	1230	0	120
67	1504	0	122
67	1536	0	122
67	1750	0	123
67	1884	0	125
67	2094	0	131
67	2186	0	131
67	2466	0	131
67	2484	0	131
67	3444	0	136
67	3928	0	136
67	4204	0	136
67	4604	0	136
67	4664	0	136
67	4680	0	136
67	4848	0	136
67	4864	0	136
67	4872	0	136
67	4924	0	136
67	5720	0	136
67	5752	0	136
67	6108	0	142
67	6220	0	142
67	6360	0	142
67	6564	0	142
67	8008	0	142
67	9344	0	143
67	9560	0	143
67	9864	0	143
67	11720	0	144
67	14072	0	144
67	14976	0	144
67	15384	0	144
67	16200	0	144
68	101	0	69
68	103	0	70
68	347	0	104
68	408	0	107
68	436	0	107
68	882	0	117
68	1022	0	119
68	1740	0	123
68	2586	0	131
68	2886	0	133
68	4512	0	136
68	6668	0	142
68	13416	0	144
68	14960	0	144
68	16056	0	144
69	102	0	70
69	144	0	80
69	199	0	87
69	320	0	102
69	329	0	104
69	493	0	107
69	550	0	108
69	659	0	109
69	673	0	109
69	734	0	109
69	749	0	109
69	885	0	117
69	958	0	119
69	974	0	119
69	984	0	119
69	1024	0	119
69	1042	0	119
69	1054	0	119
69	1580	0	122
69	1604	0	123
69	1770	0	123
69	1886	0	125
69	2400	0	131
69	2468	0	131
69	2552	0	131
69	3420	0	136
69	4508	0	136
69	5344	0	136
69	5936	0	142
69	6100	0	142
69	6584	0	142
69	6620	0	142
69	6660	0	142
69	9248	0	143
69	10288	0	143
69	12712	0	144
69	14288	0	144
69	14944	0	144
69	15224	0	144
70	112	0	71
70	132	0	76
70	247	0	94
70	280	0	99
70	506	0	107
70	555	0	108
70	630	0	109
70	693	0	109
70	696	0	109
70	860	0	117
70	968	0	119
70	1200	0	119
70	1224	0	120
70	1250	0	120
70	1308	0	120
70	1318	0	120
70	1518	0	122
70	1534	0	122
70	1538	0	122
70	1636	0	123
70	1650	0	123
70	1656	0	123
70	1756	0	123
70	1764	0	123
70	1810	0	125
70	1818	0	125
70	1872	0	125
70	2188	0	131
70	2248	0	131
70	2364	0	131
70	3024	0	133
70	3152	0	133
70	3456	0	136
70	3764	0	136
70	3820	0	136
70	3932	0	136
70	4264	0	136
70	4844	0	136
70	5136	0	136
70	5520	0	136
70	5820	0	136
70	5888	0	140
70	6536	0	142
70	6800	0	142
70	7168	0	142
70	7584	0	142
70	9648	0	143
70	10184	0	143
70	12488	0	144
70	13272	0	144
70	14240	0	144
70	14816	0	144
70	15720	0	144
70	15976	0	144
70	16264	0	144
71	114	0	72
71	266	0	99
71	337	0	104
71	470	0	107
71	701	0	109
71	1526	0	122
71	1822	0	125
71	3244	0	133
71	5448	0	136
71	5496	0	136
71	5868	0	136
71	12296	0	144
72	115	0	73
72	264	0	99
72	287	0	100
72	632	0	109
72	740	0	109
72	1150	0	119
72	1206	0	119
72	1210	0	119
72	1216	0	120
72	1820	0	125
72	2138	0	131
72	2292	0	131
72	2344	0	131
72	3240	0	133
72	3804	0	136
72	5884	0	140
72	6948	0	142
72	10736	0	143
72	11672	0	144
72	14800	0	144
72	16280	0	144
73	116	0	74
73	255	0	96
73	332	0	104
73	690	0	109
73	741	0	109
73	766	0	109
73	772	0	109
73	1220	0	120
73	1370	0	120
73	1560	0	122
73	1664	0	123
73	2290	0	131
73	2386	0	131
73	4256	0	136
73	5140	0	136
73	5488	0	136
73	5560	0	136
73	5608	0	136
73	5880	0	139
73	6572	0	142
73	6728	0	142
73	6932	0	142
73	7432	0	142
73	7600	0	142
73	7616	0	142
73	7640	0	142
73	8216	0	142
73	10880	0	143
73	11008	0	144
73	11040	0	144
73	12760	0	144
74	121	0	75
74	297	0	101
74	405	0	107
74	410	0	107
74	429	0	107
74	446	0	107
74	587	0	109
74	758	0	109
74	843	0	115
74	883	0	117
74	1034	0	119
74	1040	0	119
74	1090	0	119
74	1404	0	120
74	1782	0	123
74	2076	0	131
74	2102	0	131
74	2890	0	133
74	3140	0	133
74	3440	0	136
74	3888	0	136
74	4296	0	136
74	4316	0	136
74	4436	0	136
74	4824	0	136
74	5252	0	136
74	6072	0	142
74	6264	0	142
74	6276	0	142
74	7928	0	142
74	9280	0	143
74	9328	0	143
74	9800	0	143
74	10064	0	143
74	10520	0	143
74	12528	0	144
74	13424	0	144
74	13448	0	144
74	15240	0	144
74	16024	0	144
75	124	0	76
75	154	0	80
75	201	0	87
75	242	0	94
75	433	0	107
75	494	0	107
75	509	0	107
75	583	0	109
75	842	0	115
75	1046	0	119
75	1840	0	125
75	1910	0	126
75	2114	0	131
75	2564	0	131
75	3924	0	136
75	4244	0	136
75	4516	0	136
75	4920	0	136
75	6340	0	142
75	6552	0	142
75	6624	0	142
75	6672	0	142
75	6696	0	142
75	8256	0	142
75	9336	0	143
75	10248	0	143
75	13600	0	144
75	13872	0	144
75	14952	0	144
76	137	0	77
76	252	0	95
76	269	0	99
76	376	0	104
76	393	0	107
76	413	0	107
76	606	0	109
76	621	0	109
76	625	0	109
76	678	0	109
76	852	0	117
76	961	0	119
76	963	0	119
76	992	0	119
76	996	0	119
76	1154	0	119
76	1234	0	120
76	1356	0	120
76	1558	0	122
76	1670	0	123
76	1846	0	125
76	2004	0	131
76	2034	0	131
76	2156	0	131
76	2232	0	131
76	2286	0	131
76	2340	0	131
76	2492	0	131
76	2508	0	131
76	2516	0	131
76	3268	0	133
76	3408	0	136
76	4348	0	136
76	4692	0	136
76	5092	0	136
76	5324	0	136
76	5688	0	136
76	5716	0	136
76	5840	0	136
76	6168	0	142
76	6248	0	142
76	7056	0	142
76	7456	0	142
76	7888	0	142
76	8184	0	142
76	9520	0	143
76	10872	0	143
76	12944	0	144
76	13112	0	144
76	13160	0	144
76	13240	0	144
76	14624	0	144
76	14648	0	144
76	15176	0	144
77	138	0	78
77	176	0	82
77	196	0	87
77	313	0	102
77	342	0	104
77	390	0	107
77	449	0	107
77	609	0	109
77	739	0	109
77	790	0	109
77	793	0	109
77	838	0	115
77	863	0	117
77	865	0	117
77	874	0	117
77	953	0	119
77	1182	0	119
77	1314	0	120
77	1362	0	120
77	1368	0	120
77	1382	0	120
77	1612	0	123
77	1832	0	125
77	2064	0	131
77	2490	0	131
77	5316	0	136
77	5572	0	136
77	5908	0	142
77	6736	0	142
77	7696	0	142
77	8088	0	142
77	8104	0	142
77	9752	0	143
77	10664	0	143
77	11904	0	144
77	12376	0	144
77	12464	0	144
77	12584	0	144
77	12800	0	144
77	13104	0	144
77	14056	0	144
77	14808	0	144
78	139	0	79
78	185	0	85
78	248	0	94
78	308	0	102
78	338	0	104
78	458	0	107
78	536	0	108
78	669	0	109
78	677	0	109
78	703	0	109
78	872	0	117
78	979	0	119
78	1142	0	119
78	1244	0	120
78	1344	0	120
78	1414	0	120
78	1418	0	120
78	1446	0	120
78	1528	0	122
78	1588	0	122
78	1662	0	123
78	1726	0	123
78	2010	0	131
78	2022	0	131
78	2036	0	131
78	2140	0	131
78	2146	0	131
78	2234	0	131
78	2388	0	131
78	2872	0	133
78	3124	0	133
78	3264	0	133
78	3480	0	136
78	3488	0	136
78	3912	0	136
78	3936	0	136
78	4236	0	136
78	4260	0	136
78	4724	0	136
78	5296	0	136
78	5660	0	136
78	5836	0	136
78	5900	0	140
78	6236	0	142
78	6952	0	142
78	7760	0	142
78	9912	0	143
78	13056	0	144
78	13256	0	144
78	13720	0	144
78	14272	0	144
78	15624	0	144
78	15672	0	144
78	15912	0	144
78	16216	0	144
79	142	0	80
79	241	0	94
79	243	0	94
79	319	0	102
79	406	0	107
79	425	0	107
79	428	0	107
79	614	0	109
79	721	0	109
79	808	0	109
79	898	0	117
79	1044	0	119
79	1138	0	119
79	1292	0	120
79	1712	0	123
79	1774	0	123
79	1784	0	123
79	1906	0	125
79	2368	0	131
79	2464	0	131
79	2576	0	131
79	3616	0	136
79	4900	0	136
79	5400	0	136
79	6096	0	142
79	6448	0	142
79	6640	0	142
79	7152	0	142
79	9104	0	143
79	9488	0	143
79	10200	0	143
79	10296	0	143
79	10928	0	143
79	13880	0	144
79	14096	0	144
79	14456	0	144
79	14528	0	144
79	15112	0	144
80	160	0	81
80	216	0	89
80	411	0	107
80	418	0	107
80	450	0	107
80	568	0	108
80	594	0	109
80	627	0	109
80	763	0	109
80	798	0	109
80	855	0	117
80	887	0	117
80	1008	0	119
80	1322	0	120
80	1330	0	120
80	1490	0	122
80	1514	0	122
80	1550	0	122
80	1594	0	123
80	1866	0	125
80	1962	0	131
80	2028	0	131
80	2072	0	131
80	2092	0	131
80	2270	0	131
80	2736	0	132
80	3040	0	133
80	3136	0	133
80	3188	0	133
80	3648	0	136
80	3852	0	136
80	4320	0	136
80	4628	0	136
80	4952	0	136
80	5364	0	136
80	5640	0	136
80	5672	0	136
80	6064	0	142
80	6080	0	142
80	6228	0	142
80	6424	0	142
80	6476	0	142
80	6540	0	142
80	6612	0	142
80	7192	0	142
80	9224	0	143
80	10320	0	143
80	13632	0	144
80	13896	0	144
80	13928	0	144
80	14128	0	144
80	15608	0	144
80	15816	0	144
81	172	0	82
81	367	0	104
81	504	0	107
81	602	0	109
81	1014	0	119
81	1050	0	119
81	1130	0	119
81	1358	0	120
81	1386	0	120
81	1584	0	122
81	1938	0	130
81	2448	0	131
81	2700	0	132
81	2826	0	133
81	2918	0	133
81	2930	0	133
81	3004	0	133
81	4040	0	136
81	4092	0	136
81	4192	0	136
81	4288	0	136
81	5280	0	136
81	5332	0	136
81	5360	0	136
81	5408	0	136
81	5988	0	142
81	6896	0	142
81	7232	0	142
81	7256	0	142
81	9608	0	143
81	10536	0	143
81	12000	0	144
81	12096	0	144
81	12112	0	144
81	12160	0	144
81	12568	0	144
81	12656	0	144
81	12856	0	144
81	14424	0	144
81	14560	0	144
81	14664	0	144
81	15432	0	144
81	15832	0	144
82	177	0	83
82	211	0	88
82	294	0	101
82	352	0	104
82	440	0	107
82	520	0	108
82	662	0	109
82	679	0	109
82	685	0	109
82	689	0	109
82	738	0	109
82	765	0	109
82	767	0	109
82	861	0	117
82	1060	0	119
82	1184	0	119
82	1208	0	119
82	1242	0	120
82	1336	0	120
82	1672	0	123
82	1804	0	125
82	2042	0	131
82	2194	0	131
82	2260	0	131
82	2346	0	131
82	2376	0	131
82	3660	0	136
82	3768	0	136
82	4712	0	136
82	5240	0	136
82	5300	0	136
82	5760	0	136
82	5856	0	136
82	5904	0	141
82	5912	0	142
82	6464	0	142
82	6472	0	142
82	6920	0	142
82	7000	0	142
82	8016	0	142
82	8080	0	142
82	9216	0	143
82	9368	0	143
82	11832	0	144
82	12320	0	144
82	13328	0	144
82	14512	0	144
82	15928	0	144
83	178	0	84
83	218	0	89
83	286	0	100
83	334	0	104
83	389	0	107
83	471	0	107
83	742	0	109
83	3068	0	133
83	3080	0	133
83	3944	0	136
83	3972	0	136
83	5120	0	136
83	5440	0	136
83	5480	0	136
83	5556	0	136
83	6712	0	142
83	6828	0	142
83	9144	0	143
83	9192	0	143
83	10704	0	143
83	10720	0	143
83	11032	0	144
83	15704	0	144
84	181	0	85
84	223	0	89
84	256	0	96
84	278	0	99
84	699	0	109
84	706	0	109
84	737	0	109
84	835	0	115
84	1096	0	119
84	1152	0	119
84	1524	0	122
84	1540	0	122
84	1544	0	122
84	1668	0	123
84	1758	0	123
84	2048	0	131
84	2150	0	131
84	2300	0	131
84	2304	0	131
84	2380	0	131
84	2714	0	132
84	2844	0	133
84	2870	0	133
84	3072	0	133
84	3084	0	133
84	3212	0	133
84	3968	0	136
84	5104	0	136
84	5160	0	136
84	5512	0	136
84	6780	0	142
84	6816	0	142
84	6928	0	142
84	6940	0	142
84	7488	0	142
84	7656	0	142
84	9200	0	143
84	10768	0	143
84	11072	0	144
84	14000	0	144
84	14048	0	144
84	14848	0	144
85	191	0	86
85	383	0	105
85	407	0	107
85	434	0	107
85	496	0	107
85	512	0	108
85	548	0	108
85	581	0	109
85	589	0	109
85	591	0	109
85	752	0	109
85	869	0	117
85	911	0	117
85	2118	0	131
85	3560	0	136
85	4452	0	136
85	5040	0	136
85	5736	0	136
85	5980	0	142
85	6260	0	142
85	6372	0	142
85	6688	0	142
85	9792	0	143
85	9824	0	143
85	9840	0	143
85	12520	0	144
85	12688	0	144
85	13408	0	144
85	14600	0	144
86	192	0	87
86	299	0	101
86	349	0	104
86	401	0	107
86	524	0	108
86	615	0	109
86	648	0	109
86	712	0	109
86	759	0	109
86	761	0	109
86	854	0	117
86	932	0	119
86	986	0	119
86	1272	0	120
86	1856	0	125
86	2006	0	131
86	2080	0	131
86	2322	0	131
86	2562	0	131
86	2726	0	132
86	2828	0	133
86	3016	0	133
86	3232	0	133
86	3472	0	136
86	4476	0	136
86	5628	0	136
86	5636	0	136
86	5712	0	136
86	5728	0	136
86	6288	0	142
86	6860	0	142
86	7048	0	142
86	7408	0	142
86	7856	0	142
86	8288	0	142
86	9112	0	143
86	9504	0	143
86	9880	0	143
86	13000	0	144
86	14912	0	144
86	15960	0	144
87	203	0	88
87	225	0	89
87	339	0	104
87	394	0	107
87	419	0	107
87	499	0	107
87	612	0	109
87	618	0	109
87	694	0	109
87	714	0	109
87	723	0	109
87	728	0	109
87	778	0	109
87	866	0	117
87	877	0	117
87	1132	0	119
87	1160	0	119
87	1304	0	120
87	1442	0	120
87	1496	0	122
87	1660	0	123
87	1812	0	125
87	1864	0	125
87	1932	0	130
87	1960	0	131
87	2442	0	131
87	2528	0	131
87	2708	0	132
87	2850	0	133
87	3116	0	133
87	3460	0	136
87	3676	0	136
87	4036	0	136
87	4052	0	136
87	4356	0	136
87	4616	0	136
87	4644	0	136
87	5084	0	136
87	5376	0	136
87	5956	0	142
87	7560	0	142
87	9392	0	143
87	10152	0	143
87	10224	0	143
87	11584	0	144
87	11840	0	144
87	12120	0	144
87	12264	0	144
87	12424	0	144
87	12440	0	144
87	13120	0	144
87	13616	0	144
87	13704	0	144
87	13792	0	144
87	14480	0	144
88	212	0	89
88	221	0	89
88	1728	0	123
88	1826	0	125
88	2040	0	131
88	3940	0	136
88	5112	0	136
88	10744	0	143
88	10896	0	143
88	13760	0	144
89	227	0	90
89	229	0	91
89	237	0	94
89	598	0	109
89	1300	0	120
89	2806	0	132
89	2916	0	133
89	2932	0	133
89	4076	0	136
89	4216	0	136
89	4420	0	136
89	4544	0	136
89	4636	0	136
89	7384	0	142
89	8744	0	142
89	9704	0	143
89	11216	0	144
90	228	0	91
90	577	0	109
90	812	0	109
90	831	0	115
90	919	0	118
90	926	0	118
90	1282	0	120
90	1968	0	131
90	2680	0	132
90	2698	0	132
90	2798	0	132
90	2808	0	132
90	2896	0	133
90	3692	0	136
90	3756	0	136
90	4128	0	136
90	4376	0	136
90	6332	0	142
90	7016	0	142
90	7120	0	142
90	7240	0	142
90	8416	0	142
90	8720	0	142
90	8752	0	142
90	9064	0	143
90	11104	0	144
90	11120	0	144
90	12048	0	144
91	231	0	92
91	2596	0	131
91	2674	0	132
91	2824	0	133
91	2934	0	133
91	2940	0	133
91	4080	0	136
91	7376	0	142
91	8312	0	142
91	8952	0	143
91	11344	0	144
92	233	0	93
92	914	0	117
92	924	0	118
92	928	0	119
92	942	0	119
92	2598	0	131
92	2606	0	131
92	2676	0	132
92	2786	0	132
92	2790	0	132
92	2812	0	133
92	2946	0	133
92	2966	0	133
92	3736	0	136
92	3744	0	136
92	3752	0	136
92	6020	0	142
92	6312	0	142
92	8600	0	142
92	8928	0	143
93	234	0	94
93	829	0	115
93	2608	0	131
93	2638	0	132
93	2648	0	132
93	2784	0	132
93	6024	0	142
93	8672	0	142
93	14336	0	144
94	249	0	95
94	267	0	99
94	531	0	108
94	667	0	109
94	736	0	109
94	771	0	109
94	774	0	109
94	1196	0	119
94	1312	0	120
94	1444	0	120
94	1730	0	123
94	2162	0	131
94	2192	0	131
94	2296	0	131
94	2342	0	131
94	2384	0	131
94	2410	0	131
94	3828	0	136
94	4336	0	136
94	6820	0	142
94	6832	0	142
94	7448	0	142
94	9176	0	143
94	10712	0	143
94	11200	0	144
94	13072	0	144
94	13680	0	144
94	14784	0	144
94	15480	0	144
95	253	0	96
95	265	0	99
95	279	0	99
95	307	0	102
95	369	0	104
95	395	0	107
95	461	0	107
95	633	0	109
95	665	0	109
95	684	0	109
95	687	0	109
95	695	0	109
95	775	0	109
95	797	0	109
95	894	0	117
95	969	0	119
95	1004	0	119
95	1064	0	119
95	1116	0	119
95	1148	0	119
95	1178	0	119
95	1192	0	119
95	1198	0	119
95	1246	0	120
95	1440	0	120
95	1494	0	122
95	1628	0	123
95	1806	0	125
95	2128	0	131
95	2136	0	131
95	2168	0	131
95	2276	0	131
95	2718	0	132
95	3292	0	133
95	3304	0	136
95	3584	0	136
95	3796	0	136
95	3816	0	136
95	3844	0	136
95	4600	0	136
95	4648	0	136
95	4688	0	136
95	5472	0	136
95	5616	0	136
95	5652	0	136
95	5864	0	136
95	6084	0	142
95	6400	0	142
95	6768	0	142
95	7704	0	142
95	7808	0	142
95	10352	0	143
95	10552	0	143
95	10656	0	143
95	10904	0	143
95	11640	0	144
95	11664	0	144
95	12336	0	144
95	12400	0	144
95	12624	0	144
96	261	0	97
96	335	0	104
96	1214	0	120
96	1824	0	125
96	2046	0	131
96	2164	0	131
96	5100	0	136
96	6936	0	142
96	10752	0	143
96	11680	0	144
96	13752	0	144
97	262	0	98
97	333	0	104
97	890	0	117
97	1448	0	120
97	1828	0	125
97	2038	0	131
97	2294	0	131
97	3076	0	133
97	5484	0	136
97	5876	0	138
97	6824	0	142
97	10728	0	143
97	16312	0	144
98	263	0	99
98	631	0	109
98	666	0	109
98	707	0	109
98	895	0	117
98	955	0	119
98	2134	0	131
98	2142	0	131
98	2158	0	131
98	2166	0	131
98	2190	0	131
98	3220	0	133
98	5096	0	136
98	5124	0	136
98	5860	0	136
98	6776	0	142
98	10760	0	143
98	13768	0	144
99	283	0	100
99	379	0	104
99	444	0	107
99	455	0	107
99	516	0	108
99	534	0	108
99	559	0	108
99	599	0	109
99	619	0	109
99	635	0	109
99	651	0	109
99	777	0	109
99	902	0	117
99	1316	0	120
99	1384	0	120
99	1484	0	122
99	1556	0	122
99	1608	0	123
99	1644	0	123
99	1680	0	123
99	1876	0	125
99	1882	0	125
99	2088	0	131
99	2324	0	131
99	2526	0	131
99	3544	0	136
99	4272	0	136
99	4412	0	136
99	4480	0	136
99	4596	0	136
99	4860	0	136
99	4868	0	136
99	5412	0	136
99	5420	0	136
99	5676	0	136
99	6984	0	142
99	7472	0	142
99	7504	0	142
99	8024	0	142
99	9528	0	143
99	10464	0	143
99	10640	0	143
99	10680	0	143
99	10792	0	143
99	10856	0	143
99	11240	0	144
99	11744	0	144
99	11888	0	144
99	12072	0	144
99	12576	0	144
99	13176	0	144
99	13192	0	144
99	13344	0	144
99	15304	0	144
99	16184	0	144
100	288	0	101
100	889	0	117
100	1222	0	120
100	1310	0	120
100	2044	0	131
100	2412	0	131
100	3812	0	136
100	6724	0	142
100	9184	0	143
100	10696	0	143
100	10888	0	143
100	11048	0	144
100	11704	0	144
100	12312	0	144
100	12784	0	144
101	306	0	102
101	343	0	104
101	415	0	107
101	426	0	107
101	551	0	108
101	557	0	108
101	567	0	108
101	595	0	109
101	715	0	109
101	786	0	109
101	795	0	109
101	957	0	119
101	1188	0	119
101	1228	0	120
101	1346	0	120
101	1376	0	120
101	1392	0	120
101	1400	0	120
101	1562	0	122
101	1854	0	125
101	1888	0	125
101	1924	0	130
101	2054	0	131
101	2082	0	131
101	2160	0	131
101	2288	0	131
101	2430	0	131
101	2486	0	131
101	2504	0	131
101	2578	0	131
101	3112	0	133
101	3276	0	133
101	3452	0	136
101	3872	0	136
101	3916	0	136
101	3948	0	136
101	4832	0	136
101	5340	0	136
101	6056	0	142
101	6136	0	142
101	6856	0	142
101	7184	0	142
101	9888	0	143
101	9952	0	143
101	10384	0	143
101	11088	0	144
101	11272	0	144
101	11792	0	144
101	12632	0	144
101	13688	0	144
101	13944	0	144
101	14872	0	144
101	15560	0	144
102	321	0	103
102	510	0	107
102	584	0	109
102	809	0	109
102	949	0	119
102	983	0	119
102	1020	0	119
102	1406	0	120
102	1508	0	122
102	1772	0	123
102	2460	0	131
102	5224	0	136
102	5780	0	136
102	5792	0	136
102	6104	0	142
102	6376	0	142
102	6440	0	142
102	6548	0	142
102	6556	0	142
102	10944	0	144
102	11728	0	144
102	12512	0	144
102	12704	0	144
102	12720	0	144
102	16072	0	144
103	326	0	104
103	1256	0	120
103	1470	0	122
103	1800	0	125
103	4792	0	136
103	4804	0	136
103	4964	0	136
103	4976	0	136
103	4988	0	136
103	5924	0	142
104	382	0	105
104	503	0	107
104	572	0	108
104	811	0	109
104	905	0	117
104	931	0	119
104	938	0	119
104	1780	0	123
104	1966	0	131
104	2626	0	132
104	2694	0	132
104	2748	0	132
104	2894	0	133
104	3316	0	136
104	3632	0	136
104	4096	0	136
104	4172	0	136
104	4428	0	136
104	5984	0	142
104	6292	0	142
104	7040	0	142
104	7248	0	142
104	7264	0	142
104	8296	0	142
104	8968	0	143
104	9776	0	143
104	10016	0	143
104	12024	0	144
104	14320	0	144
104	14672	0	144
105	386	0	106
105	658	0	109
105	660	0	109
105	747	0	109
105	1058	0	119
105	1254	0	120
105	1462	0	120
105	1802	0	125
105	4524	0	136
105	4788	0	136
105	4908	0	136
105	5236	0	136
105	5916	0	142
105	6444	0	142
105	10936	0	144
106	387	0	107
106	1464	0	120
106	4760	0	136
106	4912	0	136
107	511	0	108
107	588	0	109
107	590	0	109
107	810	0	109
107	2458	0	131
107	3428	0	136
107	3568	0	136
107	5788	0	136
107	6436	0	142
107	6664	0	142
107	6676	0	142
107	9592	0	143
107	14104	0	144
107	14696	0	144
108	573	0	109
108	2610	0	131
108	2782	0	132
108	2960	0	133
108	3372	0	136
108	4112	0	136
108	4144	0	136
108	5992	0	142
108	7288	0	142
108	8392	0	142
108	8440	0	142
108	8608	0	142
108	8688	0	142
108	8736	0	142
108	8960	0	143
108	11368	0	144
108	11424	0	144
108	12040	0	144
108	12168	0	144
108	12200	0	144
108	14360	0	144
108	14400	0	144
108	14416	0	144
109	816	0	110
109	917	0	117
109	921	0	118
109	2614	0	131
109	2632	0	132
109	2936	0	133
109	2964	0	133
109	2982	0	133
109	3364	0	136
109	4020	0	136
109	7304	0	142
109	8400	0	142
109	8568	0	142
109	8784	0	142
109	8808	0	142
109	8872	0	142
109	9056	0	143
109	11352	0	144
109	11472	0	144
109	11512	0	144
109	14368	0	144
110	819	0	111
110	1972	0	131
110	1980	0	131
110	2634	0	132
110	2640	0	132
110	2792	0	132
110	2818	0	133
110	2974	0	133
110	2984	0	133
110	3708	0	136
110	6008	0	142
110	7312	0	142
110	8328	0	142
110	8664	0	142
110	8880	0	142
110	9032	0	143
110	11400	0	144
111	820	0	112
111	2902	0	133
111	2944	0	133
111	4120	0	136
111	8368	0	142
111	9040	0	143
112	824	0	113
112	828	0	115
112	916	0	117
112	922	0	118
112	940	0	119
112	2666	0	132
112	2816	0	133
112	2900	0	133
112	2980	0	133
112	3324	0	136
112	4012	0	136
112	4116	0	136
112	6016	0	142
112	8352	0	142
112	8648	0	142
112	11360	0	144
112	14352	0	144
113	825	0	114
113	827	0	115
113	2636	0	132
113	2668	0	132
113	8992	0	143
113	9008	0	143
113	9024	0	143
114	826	0	115
114	9000	0	143
114	9016	0	143
115	844	0	116
115	2534	0	131
115	2590	0	131
115	2750	0	132
115	3332	0	136
115	3344	0	136
115	3724	0	136
115	4028	0	136
115	4180	0	136
115	5048	0	136
115	8480	0	142
115	8528	0	142
115	8728	0	142
115	9072	0	143
115	12216	0	144
115	14680	0	144
116	845	0	117
116	913	0	117
116	930	0	119
116	1984	0	131
116	2692	0	132
116	2788	0	132
116	2954	0	133
116	3728	0	136
116	3740	0	136
116	4132	0	136
116	4152	0	136
116	5032	0	136
116	6316	0	142
116	8472	0	142
116	8632	0	142
116	12016	0	144
117	918	0	118
117	2678	0	132
117	2762	0	132
117	2766	0	132
117	2898	0	133
117	3328	0	136
117	3712	0	136
117	5052	0	136
117	6300	0	142
117	8344	0	142
117	8424	0	142
117	8464	0	142
117	8552	0	142
117	8704	0	142
117	8824	0	142
117	8888	0	142
117	8904	0	143
117	11392	0	144
117	11528	0	144
117	11552	0	144
117	12240	0	144
118	927	0	119
118	1388	0	120
118	2682	0	132
118	2778	0	132
118	3340	0	136
118	3352	0	136
118	3732	0	136
118	4380	0	136
118	6304	0	142
118	6496	0	142
118	8488	0	142
118	8512	0	142
118	11376	0	144
118	14552	0	144
119	1212	0	120
119	11688	0	144
119	13744	0	144
120	1466	0	121
120	1798	0	125
120	4772	0	136
121	1468	0	122
122	1590	0	123
122	5612	0	136
122	7712	0	142
122	7752	0	142
122	7824	0	142
122	7840	0	142
122	11856	0	144
123	1794	0	124
123	4800	0	136
123	4808	0	136
123	5920	0	142
123	5928	0	142
124	1796	0	125
124	4764	0	136
124	4776	0	136
124	4968	0	136
125	1988	0	131
125	2752	0	132
125	2756	0	132
125	3348	0	136
125	3356	0	136
126	2620	0	132
126	2908	0	133
126	2956	0	133
126	6320	0	142
126	8624	0	142
126	11440	0	144
127	2622	0	132
127	2990	0	133
127	6324	0	142
127	8456	0	142
128	2656	0	132
128	2968	0	133
128	3704	0	136
128	14344	0	144
129	2754	0	132
130	3700	0	136
131	4768	0	136
131	4796	0	136
131	4980	0	136
132	4984	0	136
133	7720	0	142
133	7744	0	142
134	7728	0	142
135	7736	0	142
136	7832	0	142

