file 46988 1756984398                                           
version 3
run General-220-20250904-14:13:18-15569
attr configname General
attr datetime 20250904-14:13:18
attr datetimef 20250904-141318
attr experiment General
attr inifile omnetpp.ini
attr iterationvars ""
attr iterationvarsd ""
attr iterationvarsf ""
attr measurement ""
attr network TaxiNetwork
attr processid 15569
attr repetition 220
attr replication #220
attr resultdir results
attr runnumber 220
attr seedset 220
config network TaxiNetwork
config seed-set 220
config num-rngs 1
config sim-time-limit 10s
config repeat 500
config *.numWalkers 1
config *.enableDuplication true
config *.rc 700
config **.node[0].xCor 2933
config **.node[0].yCor 2747
config **.node[1].xCor 2919
config **.node[1].yCor 2817
config **.node[2].xCor 2910
config **.node[2].yCor 2861
config **.node[3].xCor 2429
config **.node[3].yCor 2851
config **.node[4].xCor 2908
config **.node[4].yCor 2714
config **.node[5].xCor 2606
config **.node[5].yCor 2722
config **.node[6].xCor 2575
config **.node[6].yCor 2753
config **.node[7].xCor 2654
config **.node[7].yCor 2513
config **.node[8].xCor 2773
config **.node[8].yCor 2580
config **.node[9].xCor 3043
config **.node[9].yCor 2780
config **.node[10].xCor 3020
config **.node[10].yCor 2813
config **.node[11].xCor 2599
config **.node[11].yCor 2300
config **.node[12].xCor 2917
config **.node[12].yCor 2698
config **.node[13].xCor 2625
config **.node[13].yCor 2641
config **.node[14].xCor 2604
config **.node[14].yCor 2790
config **.node[15].xCor 2786
config **.node[15].yCor 3082
config **.node[16].xCor 2603
config **.node[16].yCor 2802
config **.node[17].xCor 2637
config **.node[17].yCor 2869
config **.node[18].xCor 2675
config **.node[18].yCor 2955
config **.node[19].xCor 2845
config **.node[19].yCor 2937
config **.node[20].xCor 2860
config **.node[20].yCor 2888
config **.node[21].xCor 2843
config **.node[21].yCor 4158
config **.node[22].xCor 2852
config **.node[22].yCor 4017
config **.node[23].xCor 2892
config **.node[23].yCor 4961
config **.node[24].xCor 2313
config **.node[24].yCor 3993
config **.node[25].xCor 2891
config **.node[25].yCor 4959
config **.node[26].xCor 2370
config **.node[26].yCor 4050
config **.node[27].xCor 2788
config **.node[27].yCor 3958
config **.node[28].xCor 2819
config **.node[28].yCor 4428
config **.node[29].xCor 2790
config **.node[29].yCor 3761
config **.node[30].xCor 2809
config **.node[30].yCor 2908
config **.node[31].xCor 2919
config **.node[31].yCor 3575
config **.node[32].xCor 2946
config **.node[32].yCor 3466
config **.node[33].xCor 2911
config **.node[33].yCor 3453
config **.node[34].xCor 2370
config **.node[34].yCor 3656
config **.node[35].xCor 2438
config **.node[35].yCor 3738
config **.node[36].xCor 2737
config **.node[36].yCor 3570
config **.node[37].xCor 2921
config **.node[37].yCor 3698
config **.node[38].xCor 2907
config **.node[38].yCor 5197
config **.node[39].xCor 2860
config **.node[39].yCor 3852
config **.node[40].xCor 2927
config **.node[40].yCor 3684
config **.node[41].xCor 3023
config **.node[41].yCor 5313
config **.node[42].xCor 3220
config **.node[42].yCor 5811
config **.node[43].xCor 3432
config **.node[43].yCor 5715
config **.node[44].xCor 2754
config **.node[44].yCor 2463
config **.node[45].xCor 2646
config **.node[45].yCor 2673
config **.node[46].xCor 3051
config **.node[46].yCor 2792
config **.node[47].xCor 1666
config **.node[47].yCor 3697
config **.node[48].xCor 1662
config **.node[48].yCor 3694
config **.node[49].xCor 1664
config **.node[49].yCor 3667
config **.node[50].xCor 1660
config **.node[50].yCor 3664
config **.node[51].xCor 1710
config **.node[51].yCor 3573
config **.node[52].xCor 2082
config **.node[52].yCor 2650
config **.node[53].xCor 2086
config **.node[53].yCor 2657
config **.node[54].xCor 2257
config **.node[54].yCor 3232
config **.node[55].xCor 2258
config **.node[55].yCor 3225
config **.node[56].xCor 1926
config **.node[56].yCor 2570
config **.node[57].xCor 1926
config **.node[57].yCor 2576
config **.node[58].xCor 2104
config **.node[58].yCor 1758
config **.node[59].xCor 1957
config **.node[59].yCor 1826
config **.node[60].xCor 3473
config **.node[60].yCor 1523
config **.node[61].xCor 3335
config **.node[61].yCor 1726
config **.node[62].xCor 3478
config **.node[62].yCor 1517
config **.node[63].xCor 3386
config **.node[63].yCor 2119
config **.node[64].xCor 3474
config **.node[64].yCor 1762
config **.node[65].xCor 3797
config **.node[65].yCor 2099
config **.node[66].xCor 3642
config **.node[66].yCor 2136
config **.node[67].xCor 3481
config **.node[67].yCor 2334
config **.node[68].xCor 3088
config **.node[68].yCor 1505
config **.node[69].xCor 3037
config **.node[69].yCor 1693
config **.node[70].xCor 3026
config **.node[70].yCor 1700
config **.node[71].xCor 3019
config **.node[71].yCor 669
config **.node[72].xCor 3513
config **.node[72].yCor 1358
config **.node[73].xCor 3545
config **.node[73].yCor 1230
config **.node[74].xCor 4228
config **.node[74].yCor 4220
config **.node[75].xCor 3379
config **.node[75].yCor 1207
config **.node[76].xCor 3596
config **.node[76].yCor 963
config **.node[77].xCor 3637
config **.node[77].yCor 1188
config **.node[78].xCor 3759
config **.node[78].yCor 1030
config **.node[79].xCor 2918
config **.node[79].yCor 1455
config **.node[80].xCor 2711
config **.node[80].yCor 1297
config **.node[81].xCor 439
config **.node[81].yCor 1623
config **.node[82].xCor 2857
config **.node[82].yCor 3581
config **.node[83].xCor 2858
config **.node[83].yCor 3584
config **.node[84].xCor 2999
config **.node[84].yCor 2636
config **.node[85].xCor 2905
config **.node[85].yCor 2778
config **.node[86].xCor 2653
config **.node[86].yCor 2845
config **.node[87].xCor 2864
config **.node[87].yCor 2836
config **.node[88].xCor 2426
config **.node[88].yCor 2892
config **.node[89].xCor 2964
config **.node[89].yCor 2804
config **.node[90].xCor 2586
config **.node[90].yCor 3135
config **.node[91].xCor 2864
config **.node[91].yCor 2980
config **.node[92].xCor 2527
config **.node[92].yCor 3219
config **.node[93].xCor 2863
config **.node[93].yCor 3142
config **.node[94].xCor 2485
config **.node[94].yCor 3269
config **.node[95].xCor 2653
config **.node[95].yCor 1065
config **.node[96].xCor 4062
config **.node[96].yCor 400
config **.node[97].xCor 5762
config **.node[97].yCor 3023
config **.node[98].xCor 1414
config **.node[98].yCor 3461
config **.node[99].xCor 2911
config **.node[99].yCor 1737
config **.node[100].xCor 2595
config **.node[100].yCor 2299
config **.node[101].xCor 2702
config **.node[101].yCor 3419
config **.node[102].xCor 2813
config **.node[102].yCor 3307
config **.node[103].xCor 2638
config **.node[103].yCor 2258
config **.node[104].xCor 2590
config **.node[104].yCor 3125
config **.node[105].xCor 1856
config **.node[105].yCor 2990
config **.node[106].xCor 1894
config **.node[106].yCor 2239
config **.node[107].xCor 383
config **.node[107].yCor 1251
config **.node[108].xCor 3447
config **.node[108].yCor 5489
config **.node[109].xCor 3450
config **.node[109].yCor 5697
config **.node[110].xCor 2719
config **.node[110].yCor 1920
config **.node[111].xCor 2085
config **.node[111].yCor 2389
config **.node[112].xCor 1910
config **.node[112].yCor 2548
config **.node[113].xCor 2069
config **.node[113].yCor 2050
config **.node[114].xCor 2184
config **.node[114].yCor 2209
config **.node[115].xCor 2278
config **.node[115].yCor 2390
config **.node[116].xCor 2249
config **.node[116].yCor 2299
config **.node[117].xCor 2356
config **.node[117].yCor 2303
config **.node[118].xCor 2192
config **.node[118].yCor 2475
config **.node[119].xCor 1720
config **.node[119].yCor 2911
config **.node[120].xCor 2400
config **.node[120].yCor 2887
config **.node[121].xCor 3344
config **.node[121].yCor 1890
config **.node[122].xCor 3136
config **.node[122].yCor 2418
config **.node[123].xCor 3243
config **.node[123].yCor 2525
config **.node[124].xCor 2396
config **.node[124].yCor 1267
config **.node[125].xCor 467
config **.node[125].yCor 1875
config **.node[126].xCor 3506
config **.node[126].yCor 1221
config **.node[127].xCor 1034
config **.node[127].yCor 1474
config **.node[128].xCor 2908
config **.node[128].yCor 1784
config **.node[129].xCor 2876
config **.node[129].yCor 1761
config **.node[130].xCor 2849
config **.node[130].yCor 1795
config **.node[131].xCor 3029
config **.node[131].yCor 1859
config **.node[132].xCor 2924
config **.node[132].yCor 1848
config **.node[133].xCor 3493
config **.node[133].yCor 1559
config **.node[134].xCor 2760
config **.node[134].yCor 1761
config **.node[135].xCor 1644
config **.node[135].yCor 3755
config **.node[136].xCor 1463
config **.node[136].yCor 3432
config **.node[137].xCor 2595
config **.node[137].yCor 2849
config **.node[138].xCor 2581
config **.node[138].yCor 2867
config **.node[139].xCor 2524
config **.node[139].yCor 2911
config **.node[140].xCor 2570
config **.node[140].yCor 2924
config **.node[141].xCor 2676
config **.node[141].yCor 2890
config **.node[142].xCor 2666
config **.node[142].yCor 2876
config **.node[143].xCor 3735
config **.node[143].yCor 1726
config **.node[144].xCor 1637
config **.node[144].yCor 3438

vector 0 TaxiNetwork.node[140] visitedPerTimestep ETV
vector 1 TaxiNetwork.node[52] visitedPerTimestep ETV
vector 2 TaxiNetwork.node[55] visitedPerTimestep ETV
vector 3 TaxiNetwork.node[6] visitedPerTimestep ETV
vector 4 TaxiNetwork.node[114] visitedPerTimestep ETV
vector 5 TaxiNetwork.node[110] visitedPerTimestep ETV
vector 6 TaxiNetwork.node[134] visitedPerTimestep ETV
vector 7 TaxiNetwork.node[128] visitedPerTimestep ETV
vector 8 TaxiNetwork.node[103] visitedPerTimestep ETV
vector 9 TaxiNetwork.node[12] visitedPerTimestep ETV
vector 10 TaxiNetwork.node[141] visitedPerTimestep ETV
vector 11 TaxiNetwork.node[9] visitedPerTimestep ETV
vector 12 TaxiNetwork.node[0] visitedPerTimestep ETV
vector 13 TaxiNetwork.node[120] visitedPerTimestep ETV
vector 14 TaxiNetwork.node[18] visitedPerTimestep ETV
vector 15 TaxiNetwork.node[91] visitedPerTimestep ETV
vector 16 TaxiNetwork.node[123] visitedPerTimestep ETV
vector 17 TaxiNetwork.node[118] visitedPerTimestep ETV
vector 18 TaxiNetwork.node[115] visitedPerTimestep ETV
vector 19 TaxiNetwork.node[82] visitedPerTimestep ETV
vector 20 TaxiNetwork.node[74] visitedPerTimestep ETV
vector 21 TaxiNetwork.node[102] visitedPerTimestep ETV
vector 22 TaxiNetwork.node[16] visitedPerTimestep ETV
vector 23 TaxiNetwork.node[138] visitedPerTimestep ETV
vector 24 TaxiNetwork.node[87] visitedPerTimestep ETV
vector 25 TaxiNetwork.node[86] visitedPerTimestep ETV
vector 26 TaxiNetwork.node[8] visitedPerTimestep ETV
vector 27 TaxiNetwork.node[89] visitedPerTimestep ETV
vector 28 TaxiNetwork.node[44] visitedPerTimestep ETV
vector 29 TaxiNetwork.node[11] visitedPerTimestep ETV
vector 30 TaxiNetwork.node[58] visitedPerTimestep ETV
vector 31 TaxiNetwork.node[59] visitedPerTimestep ETV
vector 32 TaxiNetwork.node[100] visitedPerTimestep ETV
vector 33 TaxiNetwork.node[30] visitedPerTimestep ETV
vector 34 TaxiNetwork.node[2] visitedPerTimestep ETV
vector 35 TaxiNetwork.node[45] visitedPerTimestep ETV
vector 36 TaxiNetwork.node[93] visitedPerTimestep ETV
vector 37 TaxiNetwork.node[17] visitedPerTimestep ETV
vector 38 TaxiNetwork.node[84] visitedPerTimestep ETV
vector 39 TaxiNetwork.node[94] visitedPerTimestep ETV
vector 40 TaxiNetwork.node[15] visitedPerTimestep ETV
vector 41 TaxiNetwork.node[19] visitedPerTimestep ETV
vector 42 TaxiNetwork.node[33] visitedPerTimestep ETV
vector 43 TaxiNetwork.node[83] visitedPerTimestep ETV
vector 44 TaxiNetwork.node[39] visitedPerTimestep ETV
vector 45 TaxiNetwork.node[36] visitedPerTimestep ETV
vector 46 TaxiNetwork.node[34] visitedPerTimestep ETV
vector 47 TaxiNetwork.node[29] visitedPerTimestep ETV
vector 48 TaxiNetwork.node[40] visitedPerTimestep ETV
vector 49 TaxiNetwork.node[116] visitedPerTimestep ETV
vector 50 TaxiNetwork.node[7] visitedPerTimestep ETV
vector 51 TaxiNetwork.node[101] visitedPerTimestep ETV
vector 52 TaxiNetwork.node[137] visitedPerTimestep ETV
vector 53 TaxiNetwork.node[10] visitedPerTimestep ETV
vector 54 TaxiNetwork.node[90] visitedPerTimestep ETV
vector 55 TaxiNetwork.node[32] visitedPerTimestep ETV
vector 56 TaxiNetwork.node[92] visitedPerTimestep ETV
vector 57 TaxiNetwork.node[20] visitedPerTimestep ETV
vector 58 TaxiNetwork.node[21] visitedPerTimestep ETV
vector 59 TaxiNetwork.node[35] visitedPerTimestep ETV
vector 60 TaxiNetwork.node[46] visitedPerTimestep ETV
vector 61 TaxiNetwork.node[31] visitedPerTimestep ETV
vector 62 TaxiNetwork.node[85] visitedPerTimestep ETV
vector 63 TaxiNetwork.node[139] visitedPerTimestep ETV
vector 64 TaxiNetwork.node[14] visitedPerTimestep ETV
vector 65 TaxiNetwork.node[122] visitedPerTimestep ETV
vector 66 TaxiNetwork.node[63] visitedPerTimestep ETV
vector 67 TaxiNetwork.node[131] visitedPerTimestep ETV
vector 68 TaxiNetwork.node[13] visitedPerTimestep ETV
vector 69 TaxiNetwork.node[4] visitedPerTimestep ETV
vector 70 TaxiNetwork.node[112] visitedPerTimestep ETV
vector 71 TaxiNetwork.node[3] visitedPerTimestep ETV
vector 72 TaxiNetwork.node[56] visitedPerTimestep ETV
vector 73 TaxiNetwork.node[57] visitedPerTimestep ETV
vector 74 TaxiNetwork.node[5] visitedPerTimestep ETV
vector 75 TaxiNetwork.node[117] visitedPerTimestep ETV
vector 76 TaxiNetwork.node[68] visitedPerTimestep ETV
vector 77 TaxiNetwork.node[80] visitedPerTimestep ETV
vector 78 TaxiNetwork.node[75] visitedPerTimestep ETV
vector 79 TaxiNetwork.node[62] visitedPerTimestep ETV
vector 80 TaxiNetwork.node[61] visitedPerTimestep ETV
vector 81 TaxiNetwork.node[132] visitedPerTimestep ETV
vector 82 TaxiNetwork.node[60] visitedPerTimestep ETV
vector 83 TaxiNetwork.node[129] visitedPerTimestep ETV
vector 84 TaxiNetwork.node[72] visitedPerTimestep ETV
vector 85 TaxiNetwork.node[69] visitedPerTimestep ETV
vector 86 TaxiNetwork.node[99] visitedPerTimestep ETV
vector 87 TaxiNetwork.node[65] visitedPerTimestep ETV
vector 88 TaxiNetwork.node[64] visitedPerTimestep ETV
vector 89 TaxiNetwork.node[88] visitedPerTimestep ETV
vector 90 TaxiNetwork.node[104] visitedPerTimestep ETV
vector 91 TaxiNetwork.node[37] visitedPerTimestep ETV
vector 92 TaxiNetwork.node[27] visitedPerTimestep ETV
vector 93 TaxiNetwork.node[73] visitedPerTimestep ETV
vector 94 TaxiNetwork.node[77] visitedPerTimestep ETV
vector 95 TaxiNetwork.node[133] visitedPerTimestep ETV
vector 96 TaxiNetwork.node[76] visitedPerTimestep ETV
vector 97 TaxiNetwork.node[70] visitedPerTimestep ETV
vector 98 TaxiNetwork.node[130] visitedPerTimestep ETV
vector 99 TaxiNetwork.node[127] visitedPerTimestep ETV
vector 100 TaxiNetwork.node[119] visitedPerTimestep ETV
vector 101 TaxiNetwork.node[136] visitedPerTimestep ETV
vector 102 TaxiNetwork.node[98] visitedPerTimestep ETV
vector 103 TaxiNetwork.node[50] visitedPerTimestep ETV
vector 104 TaxiNetwork.node[49] visitedPerTimestep ETV
vector 105 TaxiNetwork.node[144] visitedPerTimestep ETV
vector 106 TaxiNetwork.node[51] visitedPerTimestep ETV
vector 107 TaxiNetwork.node[111] visitedPerTimestep ETV
vector 108 TaxiNetwork.node[54] visitedPerTimestep ETV
vector 109 TaxiNetwork.node[22] visitedPerTimestep ETV
vector 110 TaxiNetwork.node[1] visitedPerTimestep ETV
vector 111 TaxiNetwork.node[142] visitedPerTimestep ETV
vector 112 TaxiNetwork.node[53] visitedPerTimestep ETV
vector 113 TaxiNetwork.node[105] visitedPerTimestep ETV
vector 114 TaxiNetwork.node[79] visitedPerTimestep ETV
vector 115 TaxiNetwork.node[121] visitedPerTimestep ETV
vector 116 TaxiNetwork.node[126] visitedPerTimestep ETV
vector 117 TaxiNetwork.node[143] visitedPerTimestep ETV
vector 118 TaxiNetwork.node[66] visitedPerTimestep ETV
vector 119 TaxiNetwork.node[78] visitedPerTimestep ETV
vector 120 TaxiNetwork.node[67] visitedPerTimestep ETV
vector 121 TaxiNetwork.node[24] visitedPerTimestep ETV
vector 122 TaxiNetwork.node[28] visitedPerTimestep ETV
vector 123 TaxiNetwork.node[124] visitedPerTimestep ETV
vector 124 TaxiNetwork.node[97] visitedPerTimestep ETV
vector 125 TaxiNetwork.node[113] visitedPerTimestep ETV
vector 126 TaxiNetwork.node[106] visitedPerTimestep ETV
vector 127 TaxiNetwork.node[71] visitedPerTimestep ETV
vector 128 TaxiNetwork.node[95] visitedPerTimestep ETV
vector 129 TaxiNetwork.node[108] visitedPerTimestep ETV
vector 130 TaxiNetwork.node[42] visitedPerTimestep ETV
vector 131 TaxiNetwork.node[41] visitedPerTimestep ETV
vector 132 TaxiNetwork.node[109] visitedPerTimestep ETV
vector 133 TaxiNetwork.node[43] visitedPerTimestep ETV
vector 134 TaxiNetwork.node[23] visitedPerTimestep ETV
vector 135 TaxiNetwork.node[38] visitedPerTimestep ETV
vector 136 TaxiNetwork.node[26] visitedPerTimestep ETV
vector 137 TaxiNetwork.node[81] visitedPerTimestep ETV
vector 138 TaxiNetwork.node[107] visitedPerTimestep ETV
vector 139 TaxiNetwork.node[125] visitedPerTimestep ETV
vector 140 TaxiNetwork.node[96] visitedPerTimestep ETV
0	16754 297 1 3888 0 0 25 1 144 2642 323316
1	17051 291 2 3636 0 0 24 2 143 2793 349657
2	17342 231 3 3492 0 0 19 3 143 2291 296187
3	17573 365 4 3156 0 0 30 4 143 3520 444748
4	17938 144 5 2954 0 0 12 5 143 1353 176985
5	18082 164 6 3296 0 0 14 6 143 1473 189765
6	18246 128 7 2856 0 0 11 7 143 1205 146899
7	18374 168 9 3224 0 0 14 8 143 1605 202953
8	18542 365 10 3692 0 0 30 9 143 3458 442884
9	18907 389 11 3768 0 0 31 10 143 3939 521921
10	19296 361 12 3992 0 0 27 11 144 3217 415143
11	19657 300 13 3980 0 0 23 12 144 2471 311029
12	19957 268 15 3808 0 0 20 13 143 2419 321697
13	20225 215 16 3460 0 0 16 14 143 1975 261769
14	20440 321 18 3172 0 0 25 15 143 2574 303302
15	20761 354 19 3852 0 0 27 16 144 3071 385249
16	21115 383 23 3672 0 0 29 17 143 3338 415430
17	21498 245 25 3756 0 0 18 18 143 2274 305460
18	21743 194 26 4004 0 0 15 19 144 1599 190591
19	21937 188 28 4020 0 0 14 20 145 1671 215929
20	22125 75 29 3868 0 0 6 21 144 592 71220
21	22200 317 30 3616 0 0 24 22 143 2881 362549
22	22517 366 31 3856 0 0 28 23 144 3158 388068
23	22883 333 32 3824 0 0 25 24 144 3051 394305
24	23216 386 33 3848 0 0 29 25 144 3445 451107
25	23602 481 36 3984 0 0 36 26 144 4358 565628
26	24083 354 37 3624 0 0 27 27 143 3033 374209
27	24437 392 39 3648 0 0 29 28 143 3691 489767
28	24829 365 40 3408 0 0 27 29 143 3442 452422
29	25194 530 43 3596 0 0 40 30 143 4779 603281
30	25724 77 45 2792 0 0 6 31 143 611 77213
31	25801 38 46 3752 0 0 3 32 143 291 34929
32	25839 364 49 3884 0 0 27 33 144 3409 446963
33	26203 329 50 3396 0 0 25 34 143 2895 356309
34	26532 250 51 3668 0 0 19 35 143 2161 271845
35	26782 435 52 3664 0 0 33 36 143 3773 469527
36	27217 353 53 3920 0 0 26 37 144 3344 443054
37	27570 405 55 3912 0 0 31 38 144 3551 438455
38	27975 350 58 3196 0 0 26 39 143 3265 430169
39	28325 309 60 3728 0 0 23 40 143 2817 361599
40	28634 322 62 3892 0 0 24 41 144 2963 379163
41	28956 436 63 3940 0 0 33 42 144 3898 482376
42	29392 226 65 3936 0 0 17 43 144 2032 257880
43	29618 228 66 3864 0 0 18 44 144 1766 204522
44	29846 198 67 2746 0 0 15 45 143 1739 216155
45	30044 238 68 3524 0 0 18 46 143 2082 257260
46	30282 130 69 2530 0 0 10 47 141 1087 133139
47	30412 106 71 3548 0 0 8 48 143 942 118118
48	30518 95 73 3932 0 0 7 49 144 878 116982
49	30613 119 80 1932 0 0 9 50 137 1077 135119
50	30732 284 86 3772 0 0 21 51 143 2687 355227
51	31016 374 91 3708 0 0 28 52 143 3409 433129
52	31390 426 92 3844 0 0 32 53 144 3898 497842
53	31816 267 97 3988 0 0 20 54 144 2428 308102
54	32083 278 98 3968 0 0 21 55 144 2495 314787
55	32361 216 107 3720 0 0 16 56 143 1952 251804
56	32577 321 108 3724 0 0 24 57 143 2936 372866
57	32898 428 111 3796 0 0 32 58 143 3847 480661
58	33326 80 116 2928 0 0 6 59 143 716 90598
59	33406 163 117 2174 0 0 12 60 140 1489 191191
60	33569 386 120 3952 0 0 29 61 144 3483 441365
61	33955 202 122 3516 0 0 15 62 143 1864 239746
62	34157 385 125 3680 0 0 29 63 143 3481 431583
63	34542 474 129 3908 0 0 35 64 144 4501 590731
64	35016 284 143 3960 0 0 21 65 144 2649 348335
65	35300 337 149 3956 0 0 25 66 144 3107 402761
66	35637 173 150 3260 0 0 13 67 143 1600 203836
67	35810 228 151 3232 0 0 17 68 143 2138 275186
68	36038 433 161 3916 0 0 32 69 144 4079 532391
69	36471 386 167 3780 0 0 29 70 143 3565 448047
70	36857 134 182 2642 0 0 10 71 143 1196 149990
71	36991 361 190 2968 0 0 27 72 143 3329 421917
72	37352 108 192 3632 0 0 8 73 143 996 128782
73	37460 165 193 4008 0 0 12 74 144 1591 214949
74	37625 299 194 3840 0 0 22 75 144 2839 373949
75	37924 230 208 3480 0 0 17 76 143 2171 283871
76	38154 159 214 3344 0 0 12 77 143 1494 191170
77	38313 106 216 3304 0 0 8 78 143 997 127169
78	38419 107 217 3348 0 0 8 79 143 999 128041
79	38526 267 218 2882 0 0 20 80 143 2496 319046
80	38793 149 219 3336 0 0 11 81 143 1413 184699
81	38942 245 221 3240 0 0 18 82 143 2375 316921
82	39187 334 223 3324 0 0 25 83 143 3152 403528
83	39521 202 224 3320 0 0 15 84 143 1902 247748
84	39723 118 226 3356 0 0 9 85 143 1094 136324
85	39841 309 227 2862 0 0 23 86 143 2922 377762
86	40150 186 228 2888 0 0 14 87 143 1723 217147
87	40336 66 240 1544 0 0 5 88 137 596 72626
88	40402 245 242 2884 0 0 18 89 143 2347 309291
89	40647 297 271 4000 0 0 22 90 144 2838 373310
90	40944 287 278 4016 0 0 21 91 144 2786 373504
91	41231 175 301 3572 0 0 13 92 143 1649 212621
92	41406 80 302 3564 0 0 6 93 143 739 93445
93	41486 134 311 3328 0 0 10 94 143 1266 163460
94	41620 26 312 2872 0 0 2 95 143 238 29474
95	41646 135 313 2876 0 0 10 96 143 1285 167419
96	41781 91 315 2200 0 0 7 97 140 854 105180
97	41872 163 317 3360 0 0 12 98 143 1598 215364
98	42035 225 322 2226 0 0 17 99 141 2102 262558
99	42260 153 323 2126 0 0 11 100 140 1494 204338
100	42413 71 354 3464 0 0 5 101 143 590 70860
101	42484 29 355 1138 0 0 2 102 136 238 28900
102	42513 71 356 1134 0 0 5 103 136 558 63028
103	42584 14 357 357 0 0 1 104 104 104 10816
104	42598 28 358 364 0 0 2 105 107 212 22474
105	42626 42 361 979 0 0 3 106 129 342 39326
106	42668 87 362 2532 0 0 6 107 141 739 92315
107	42755 280 386 3832 0 0 19 108 144 2544 343364
108	43035 259 392 3860 0 0 18 109 144 2297 295911
109	43294 194 396 3928 0 0 13 110 144 1787 246573
110	43488 383 427 3972 0 0 26 111 144 3497 473775
111	43871 322 477 3188 0 0 22 112 143 2922 390906
112	44193 340 487 4012 0 0 23 113 144 3112 423500
113	44533 103 495 3488 0 0 7 114 143 939 126643
114	44636 114 540 3248 0 0 8 115 143 1004 126888
115	44750 291 543 2866 0 0 20 116 143 2618 345032
116	45041 175 678 2880 0 0 12 117 143 1562 204498
117	45216 177 697 3340 0 0 12 118 143 1621 219923
118	45393 103 706 2840 0 0 7 119 143 937 126037
119	45496 133 729 3352 0 0 9 120 143 1231 168973
120	45629 163 733 3212 0 0 11 121 143 1506 206818
121	45792 59 743 3556 0 0 4 122 143 549 75663
122	45851 74 744 2926 0 0 5 123 143 676 91612
123	45925 44 790 3316 0 0 3 124 143 404 54594
124	45969 14 820 820 0 0 1 125 125 125 15625
125	45983 104 887 3748 0 0 7 126 143 964 132984
126	46087 89 901 2898 0 0 6 127 143 834 116126
127	46176 43 920 3308 0 0 3 128 143 399 53217
128	46219 29 965 3312 0 0 2 129 143 272 37090
129	46248 88 989 1026 0 0 6 130 136 805 108033
130	46336 74 990 1032 0 0 5 131 136 675 91145
131	46410 116 991 1034 0 0 8 132 136 1074 144202
132	46526 72 992 1028 0 0 5 133 136 672 90326
133	46598 29 997 1014 0 0 2 134 136 270 36452
134	46627 30 1004 1038 0 0 2 135 136 271 36721
135	46657 45 1006 1036 0 0 3 136 136 408 55488
136	46702 90 1432 3568 0 0 6 137 143 840 117636
137	46792 45 2082 2104 0 0 3 138 140 417 57965
138	46837 30 2084 2108 0 0 2 139 140 279 38921
139	46867 90 2088 2124 0 0 6 140 140 840 117600
140	46957 30 2204 2846 0 0 2 141 143 284 40330

