version 3
run General-167-20250904-14:13:16-15476
attr configname General
attr datetime 20250904-14:13:16
attr datetimef 20250904-141316
attr experiment General
attr inifile omnetpp.ini
attr iterationvars ""
attr iterationvarsd ""
attr iterationvarsf ""
attr measurement ""
attr network TaxiNetwork
attr processid 15476
attr repetition 167
attr replication #167
attr resultdir results
attr runnumber 167
attr seedset 167
config network TaxiNetwork
config seed-set 167
config num-rngs 1
config sim-time-limit 10s
config repeat 500
config *.numWalkers 1
config *.enableDuplication true
config *.rc 700
config **.node[0].xCor 2933
config **.node[0].yCor 2747
config **.node[1].xCor 2919
config **.node[1].yCor 2817
config **.node[2].xCor 2910
config **.node[2].yCor 2861
config **.node[3].xCor 2429
config **.node[3].yCor 2851
config **.node[4].xCor 2908
config **.node[4].yCor 2714
config **.node[5].xCor 2606
config **.node[5].yCor 2722
config **.node[6].xCor 2575
config **.node[6].yCor 2753
config **.node[7].xCor 2654
config **.node[7].yCor 2513
config **.node[8].xCor 2773
config **.node[8].yCor 2580
config **.node[9].xCor 3043
config **.node[9].yCor 2780
config **.node[10].xCor 3020
config **.node[10].yCor 2813
config **.node[11].xCor 2599
config **.node[11].yCor 2300
config **.node[12].xCor 2917
config **.node[12].yCor 2698
config **.node[13].xCor 2625
config **.node[13].yCor 2641
config **.node[14].xCor 2604
config **.node[14].yCor 2790
config **.node[15].xCor 2786
config **.node[15].yCor 3082
config **.node[16].xCor 2603
config **.node[16].yCor 2802
config **.node[17].xCor 2637
config **.node[17].yCor 2869
config **.node[18].xCor 2675
config **.node[18].yCor 2955
config **.node[19].xCor 2845
config **.node[19].yCor 2937
config **.node[20].xCor 2860
config **.node[20].yCor 2888
config **.node[21].xCor 2843
config **.node[21].yCor 4158
config **.node[22].xCor 2852
config **.node[22].yCor 4017
config **.node[23].xCor 2892
config **.node[23].yCor 4961
config **.node[24].xCor 2313
config **.node[24].yCor 3993
config **.node[25].xCor 2891
config **.node[25].yCor 4959
config **.node[26].xCor 2370
config **.node[26].yCor 4050
config **.node[27].xCor 2788
config **.node[27].yCor 3958
config **.node[28].xCor 2819
config **.node[28].yCor 4428
config **.node[29].xCor 2790
config **.node[29].yCor 3761
config **.node[30].xCor 2809
config **.node[30].yCor 2908
config **.node[31].xCor 2919
config **.node[31].yCor 3575
config **.node[32].xCor 2946
config **.node[32].yCor 3466
config **.node[33].xCor 2911
config **.node[33].yCor 3453
config **.node[34].xCor 2370
config **.node[34].yCor 3656
config **.node[35].xCor 2438
config **.node[35].yCor 3738
config **.node[36].xCor 2737
config **.node[36].yCor 3570
config **.node[37].xCor 2921
config **.node[37].yCor 3698
config **.node[38].xCor 2907
config **.node[38].yCor 5197
config **.node[39].xCor 2860
config **.node[39].yCor 3852
config **.node[40].xCor 2927
config **.node[40].yCor 3684
config **.node[41].xCor 3023
config **.node[41].yCor 5313
config **.node[42].xCor 3220
config **.node[42].yCor 5811
config **.node[43].xCor 3432
config **.node[43].yCor 5715
config **.node[44].xCor 2754
config **.node[44].yCor 2463
config **.node[45].xCor 2646
config **.node[45].yCor 2673
config **.node[46].xCor 3051
config **.node[46].yCor 2792
config **.node[47].xCor 1666
config **.node[47].yCor 3697
config **.node[48].xCor 1662
config **.node[48].yCor 3694
config **.node[49].xCor 1664
config **.node[49].yCor 3667
config **.node[50].xCor 1660
config **.node[50].yCor 3664
config **.node[51].xCor 1710
config **.node[51].yCor 3573
config **.node[52].xCor 2082
config **.node[52].yCor 2650
config **.node[53].xCor 2086
config **.node[53].yCor 2657
config **.node[54].xCor 2257
config **.node[54].yCor 3232
config **.node[55].xCor 2258
config **.node[55].yCor 3225
config **.node[56].xCor 1926
config **.node[56].yCor 2570
config **.node[57].xCor 1926
config **.node[57].yCor 2576
config **.node[58].xCor 2104
config **.node[58].yCor 1758
config **.node[59].xCor 1957
config **.node[59].yCor 1826
config **.node[60].xCor 3473
config **.node[60].yCor 1523
config **.node[61].xCor 3335
config **.node[61].yCor 1726
config **.node[62].xCor 3478
config **.node[62].yCor 1517
config **.node[63].xCor 3386
config **.node[63].yCor 2119
config **.node[64].xCor 3474
config **.node[64].yCor 1762
config **.node[65].xCor 3797
config **.node[65].yCor 2099
config **.node[66].xCor 3642
config **.node[66].yCor 2136
config **.node[67].xCor 3481
config **.node[67].yCor 2334
config **.node[68].xCor 3088
config **.node[68].yCor 1505
config **.node[69].xCor 3037
config **.node[69].yCor 1693
config **.node[70].xCor 3026
config **.node[70].yCor 1700
config **.node[71].xCor 3019
config **.node[71].yCor 669
config **.node[72].xCor 3513
config **.node[72].yCor 1358
config **.node[73].xCor 3545
config **.node[73].yCor 1230
config **.node[74].xCor 4228
config **.node[74].yCor 4220
config **.node[75].xCor 3379
config **.node[75].yCor 1207
config **.node[76].xCor 3596
config **.node[76].yCor 963
config **.node[77].xCor 3637
config **.node[77].yCor 1188
config **.node[78].xCor 3759
config **.node[78].yCor 1030
config **.node[79].xCor 2918
config **.node[79].yCor 1455
config **.node[80].xCor 2711
config **.node[80].yCor 1297
config **.node[81].xCor 439
config **.node[81].yCor 1623
config **.node[82].xCor 2857
config **.node[82].yCor 3581
config **.node[83].xCor 2858
config **.node[83].yCor 3584
config **.node[84].xCor 2999
config **.node[84].yCor 2636
config **.node[85].xCor 2905
config **.node[85].yCor 2778
config **.node[86].xCor 2653
config **.node[86].yCor 2845
config **.node[87].xCor 2864
config **.node[87].yCor 2836
config **.node[88].xCor 2426
config **.node[88].yCor 2892
config **.node[89].xCor 2964
config **.node[89].yCor 2804
config **.node[90].xCor 2586
config **.node[90].yCor 3135
config **.node[91].xCor 2864
config **.node[91].yCor 2980
config **.node[92].xCor 2527
config **.node[92].yCor 3219
config **.node[93].xCor 2863
config **.node[93].yCor 3142
config **.node[94].xCor 2485
config **.node[94].yCor 3269
config **.node[95].xCor 2653
config **.node[95].yCor 1065
config **.node[96].xCor 4062
config **.node[96].yCor 400
config **.node[97].xCor 5762
config **.node[97].yCor 3023
config **.node[98].xCor 1414
config **.node[98].yCor 3461
config **.node[99].xCor 2911
config **.node[99].yCor 1737
config **.node[100].xCor 2595
config **.node[100].yCor 2299
config **.node[101].xCor 2702
config **.node[101].yCor 3419
config **.node[102].xCor 2813
config **.node[102].yCor 3307
config **.node[103].xCor 2638
config **.node[103].yCor 2258
config **.node[104].xCor 2590
config **.node[104].yCor 3125
config **.node[105].xCor 1856
config **.node[105].yCor 2990
config **.node[106].xCor 1894
config **.node[106].yCor 2239
config **.node[107].xCor 383
config **.node[107].yCor 1251
config **.node[108].xCor 3447
config **.node[108].yCor 5489
config **.node[109].xCor 3450
config **.node[109].yCor 5697
config **.node[110].xCor 2719
config **.node[110].yCor 1920
config **.node[111].xCor 2085
config **.node[111].yCor 2389
config **.node[112].xCor 1910
config **.node[112].yCor 2548
config **.node[113].xCor 2069
config **.node[113].yCor 2050
config **.node[114].xCor 2184
config **.node[114].yCor 2209
config **.node[115].xCor 2278
config **.node[115].yCor 2390
config **.node[116].xCor 2249
config **.node[116].yCor 2299
config **.node[117].xCor 2356
config **.node[117].yCor 2303
config **.node[118].xCor 2192
config **.node[118].yCor 2475
config **.node[119].xCor 1720
config **.node[119].yCor 2911
config **.node[120].xCor 2400
config **.node[120].yCor 2887
config **.node[121].xCor 3344
config **.node[121].yCor 1890
config **.node[122].xCor 3136
config **.node[122].yCor 2418
config **.node[123].xCor 3243
config **.node[123].yCor 2525
config **.node[124].xCor 2396
config **.node[124].yCor 1267
config **.node[125].xCor 467
config **.node[125].yCor 1875
config **.node[126].xCor 3506
config **.node[126].yCor 1221
config **.node[127].xCor 1034
config **.node[127].yCor 1474
config **.node[128].xCor 2908
config **.node[128].yCor 1784
config **.node[129].xCor 2876
config **.node[129].yCor 1761
config **.node[130].xCor 2849
config **.node[130].yCor 1795
config **.node[131].xCor 3029
config **.node[131].yCor 1859
config **.node[132].xCor 2924
config **.node[132].yCor 1848
config **.node[133].xCor 3493
config **.node[133].yCor 1559
config **.node[134].xCor 2760
config **.node[134].yCor 1761
config **.node[135].xCor 1644
config **.node[135].yCor 3755
config **.node[136].xCor 1463
config **.node[136].yCor 3432
config **.node[137].xCor 2595
config **.node[137].yCor 2849
config **.node[138].xCor 2581
config **.node[138].yCor 2867
config **.node[139].xCor 2524
config **.node[139].yCor 2911
config **.node[140].xCor 2570
config **.node[140].yCor 2924
config **.node[141].xCor 2676
config **.node[141].yCor 2890
config **.node[142].xCor 2666
config **.node[142].yCor 2876
config **.node[143].xCor 3735
config **.node[143].yCor 1726
config **.node[144].xCor 1637
config **.node[144].yCor 3438

vector 0 TaxiNetwork.node[1] visitedPerTimestep ETV
vector 1 TaxiNetwork.node[11] visitedPerTimestep ETV
vector 2 TaxiNetwork.node[139] visitedPerTimestep ETV
vector 3 TaxiNetwork.node[140] visitedPerTimestep ETV
vector 4 TaxiNetwork.node[115] visitedPerTimestep ETV
vector 5 TaxiNetwork.node[7] visitedPerTimestep ETV
vector 6 TaxiNetwork.node[137] visitedPerTimestep ETV
vector 7 TaxiNetwork.node[142] visitedPerTimestep ETV
vector 8 TaxiNetwork.node[103] visitedPerTimestep ETV
vector 9 TaxiNetwork.node[113] visitedPerTimestep ETV
vector 10 TaxiNetwork.node[57] visitedPerTimestep ETV
vector 11 TaxiNetwork.node[52] visitedPerTimestep ETV
vector 12 TaxiNetwork.node[112] visitedPerTimestep ETV
vector 13 TaxiNetwork.node[105] visitedPerTimestep ETV
vector 14 TaxiNetwork.node[53] visitedPerTimestep ETV
vector 15 TaxiNetwork.node[102] visitedPerTimestep ETV
vector 16 TaxiNetwork.node[85] visitedPerTimestep ETV
vector 17 TaxiNetwork.node[45] visitedPerTimestep ETV
vector 18 TaxiNetwork.node[91] visitedPerTimestep ETV
vector 19 TaxiNetwork.node[18] visitedPerTimestep ETV
vector 20 TaxiNetwork.node[87] visitedPerTimestep ETV
vector 21 TaxiNetwork.node[100] visitedPerTimestep ETV
vector 22 TaxiNetwork.node[116] visitedPerTimestep ETV
vector 23 TaxiNetwork.node[13] visitedPerTimestep ETV
vector 24 TaxiNetwork.node[114] visitedPerTimestep ETV
vector 25 TaxiNetwork.node[44] visitedPerTimestep ETV
vector 26 TaxiNetwork.node[117] visitedPerTimestep ETV
vector 27 TaxiNetwork.node[120] visitedPerTimestep ETV
vector 28 TaxiNetwork.node[101] visitedPerTimestep ETV
vector 29 TaxiNetwork.node[27] visitedPerTimestep ETV
vector 30 TaxiNetwork.node[21] visitedPerTimestep ETV
vector 31 TaxiNetwork.node[37] visitedPerTimestep ETV
vector 32 TaxiNetwork.node[33] visitedPerTimestep ETV
vector 33 TaxiNetwork.node[88] visitedPerTimestep ETV
vector 34 TaxiNetwork.node[20] visitedPerTimestep ETV
vector 35 TaxiNetwork.node[93] visitedPerTimestep ETV
vector 36 TaxiNetwork.node[16] visitedPerTimestep ETV
vector 37 TaxiNetwork.node[30] visitedPerTimestep ETV
vector 38 TaxiNetwork.node[15] visitedPerTimestep ETV
vector 39 TaxiNetwork.node[0] visitedPerTimestep ETV
vector 40 TaxiNetwork.node[141] visitedPerTimestep ETV
vector 41 TaxiNetwork.node[123] visitedPerTimestep ETV
vector 42 TaxiNetwork.node[63] visitedPerTimestep ETV
vector 43 TaxiNetwork.node[84] visitedPerTimestep ETV
vector 44 TaxiNetwork.node[90] visitedPerTimestep ETV
vector 45 TaxiNetwork.node[17] visitedPerTimestep ETV
vector 46 TaxiNetwork.node[128] visitedPerTimestep ETV
vector 47 TaxiNetwork.node[122] visitedPerTimestep ETV
vector 48 TaxiNetwork.node[19] visitedPerTimestep ETV
vector 49 TaxiNetwork.node[55] visitedPerTimestep ETV
vector 50 TaxiNetwork.node[94] visitedPerTimestep ETV
vector 51 TaxiNetwork.node[8] visitedPerTimestep ETV
vector 52 TaxiNetwork.node[6] visitedPerTimestep ETV
vector 53 TaxiNetwork.node[118] visitedPerTimestep ETV
vector 54 TaxiNetwork.node[9] visitedPerTimestep ETV
vector 55 TaxiNetwork.node[104] visitedPerTimestep ETV
vector 56 TaxiNetwork.node[89] visitedPerTimestep ETV
vector 57 TaxiNetwork.node[32] visitedPerTimestep ETV
vector 58 TaxiNetwork.node[67] visitedPerTimestep ETV
vector 59 TaxiNetwork.node[36] visitedPerTimestep ETV
vector 60 TaxiNetwork.node[2] visitedPerTimestep ETV
vector 61 TaxiNetwork.node[86] visitedPerTimestep ETV
vector 62 TaxiNetwork.node[3] visitedPerTimestep ETV
vector 63 TaxiNetwork.node[46] visitedPerTimestep ETV
vector 64 TaxiNetwork.node[14] visitedPerTimestep ETV
vector 65 TaxiNetwork.node[5] visitedPerTimestep ETV
vector 66 TaxiNetwork.node[10] visitedPerTimestep ETV
vector 67 TaxiNetwork.node[31] visitedPerTimestep ETV
vector 68 TaxiNetwork.node[92] visitedPerTimestep ETV
vector 69 TaxiNetwork.node[4] visitedPerTimestep ETV
vector 70 TaxiNetwork.node[24] visitedPerTimestep ETV
vector 71 TaxiNetwork.node[26] visitedPerTimestep ETV
vector 72 TaxiNetwork.node[39] visitedPerTimestep ETV
vector 73 TaxiNetwork.node[111] visitedPerTimestep ETV
vector 74 TaxiNetwork.node[131] visitedPerTimestep ETV
vector 75 TaxiNetwork.node[68] visitedPerTimestep ETV
vector 76 TaxiNetwork.node[99] visitedPerTimestep ETV
vector 77 TaxiNetwork.node[82] visitedPerTimestep ETV
vector 78 TaxiNetwork.node[40] visitedPerTimestep ETV
vector 79 TaxiNetwork.node[110] visitedPerTimestep ETV
vector 80 TaxiNetwork.node[134] visitedPerTimestep ETV
vector 81 TaxiNetwork.node[121] visitedPerTimestep ETV
vector 82 TaxiNetwork.node[61] visitedPerTimestep ETV
vector 83 TaxiNetwork.node[143] visitedPerTimestep ETV
vector 84 TaxiNetwork.node[69] visitedPerTimestep ETV
vector 85 TaxiNetwork.node[73] visitedPerTimestep ETV
vector 86 TaxiNetwork.node[72] visitedPerTimestep ETV
vector 87 TaxiNetwork.node[133] visitedPerTimestep ETV
vector 88 TaxiNetwork.node[77] visitedPerTimestep ETV
vector 89 TaxiNetwork.node[76] visitedPerTimestep ETV
vector 90 TaxiNetwork.node[75] visitedPerTimestep ETV
vector 91 TaxiNetwork.node[62] visitedPerTimestep ETV
vector 92 TaxiNetwork.node[132] visitedPerTimestep ETV
vector 93 TaxiNetwork.node[79] visitedPerTimestep ETV
vector 94 TaxiNetwork.node[78] visitedPerTimestep ETV
vector 95 TaxiNetwork.node[58] visitedPerTimestep ETV
vector 96 TaxiNetwork.node[124] visitedPerTimestep ETV
vector 97 TaxiNetwork.node[12] visitedPerTimestep ETV
vector 98 TaxiNetwork.node[83] visitedPerTimestep ETV
vector 99 TaxiNetwork.node[54] visitedPerTimestep ETV
vector 100 TaxiNetwork.node[34] visitedPerTimestep ETV
vector 101 TaxiNetwork.node[22] visitedPerTimestep ETV
vector 102 TaxiNetwork.node[56] visitedPerTimestep ETV
vector 103 TaxiNetwork.node[106] visitedPerTimestep ETV
vector 104 TaxiNetwork.node[29] visitedPerTimestep ETV
vector 105 TaxiNetwork.node[144] visitedPerTimestep ETV
vector 106 TaxiNetwork.node[47] visitedPerTimestep ETV
vector 107 TaxiNetwork.node[98] visitedPerTimestep ETV
vector 108 TaxiNetwork.node[119] visitedPerTimestep ETV
vector 109 TaxiNetwork.node[130] visitedPerTimestep ETV
vector 110 TaxiNetwork.node[70] visitedPerTimestep ETV
vector 111 TaxiNetwork.node[80] visitedPerTimestep ETV
vector 112 TaxiNetwork.node[60] visitedPerTimestep ETV
vector 113 TaxiNetwork.node[71] visitedPerTimestep ETV
vector 114 TaxiNetwork.node[129] visitedPerTimestep ETV
vector 115 TaxiNetwork.node[64] visitedPerTimestep ETV
vector 116 TaxiNetwork.node[126] visitedPerTimestep ETV
vector 117 TaxiNetwork.node[138] visitedPerTimestep ETV
vector 118 TaxiNetwork.node[28] visitedPerTimestep ETV
vector 119 TaxiNetwork.node[51] visitedPerTimestep ETV
vector 120 TaxiNetwork.node[48] visitedPerTimestep ETV
vector 121 TaxiNetwork.node[136] visitedPerTimestep ETV
vector 122 TaxiNetwork.node[59] visitedPerTimestep ETV
vector 123 TaxiNetwork.node[65] visitedPerTimestep ETV
vector 124 TaxiNetwork.node[66] visitedPerTimestep ETV
vector 125 TaxiNetwork.node[23] visitedPerTimestep ETV
vector 126 TaxiNetwork.node[38] visitedPerTimestep ETV
vector 127 TaxiNetwork.node[25] visitedPerTimestep ETV
vector 128 TaxiNetwork.node[41] visitedPerTimestep ETV
vector 129 TaxiNetwork.node[43] visitedPerTimestep ETV
vector 130 TaxiNetwork.node[108] visitedPerTimestep ETV
vector 131 TaxiNetwork.node[42] visitedPerTimestep ETV
vector 132 TaxiNetwork.node[109] visitedPerTimestep ETV
vector 133 TaxiNetwork.node[74] visitedPerTimestep ETV
vector 134 TaxiNetwork.node[96] visitedPerTimestep ETV
vector 135 TaxiNetwork.node[35] visitedPerTimestep ETV
vector 136 TaxiNetwork.node[95] visitedPerTimestep ETV
vector 137 TaxiNetwork.node[135] visitedPerTimestep ETV
vector 138 TaxiNetwork.node[50] visitedPerTimestep ETV
vector 139 TaxiNetwork.node[127] visitedPerTimestep ETV
0	1	0	1
0	48	0	36
0	169	0	69
0	172	0	70
0	196	0	74
0	345	0	104
0	416	0	110
0	429	0	110
0	442	0	110
0	447	0	110
0	552	0	119
0	565	0	119
0	610	0	119
0	612	0	119
0	692	0	119
0	768	0	123
0	771	0	123
0	1134	0	136
0	1666	0	141
0	1724	0	141
0	1768	0	141
0	1858	0	143
0	1862	0	143
0	2354	0	143
0	2626	0	143
0	2650	0	143
0	2746	0	143
0	2948	0	143
0	3540	0	144
0	3648	0	144
0	4040	0	144
0	4220	0	144
0	4416	0	144
0	4496	0	144
0	4916	0	144
0	5080	0	144
0	6196	0	144
0	6360	0	144
0	6464	0	144
0	6884	0	144
0	7000	0	144
0	7048	0	144
0	8152	0	144
0	8352	0	144
1	2	0	2
1	69	0	48
1	161	0	69
1	168	0	69
1	191	0	74
1	246	0	80
1	378	0	105
1	1058	0	136
1	1078	0	136
1	1170	0	136
1	1282	0	136
1	1320	0	137
1	1506	0	141
1	1582	0	141
1	1936	0	143
1	2590	0	143
1	2744	0	143
1	2950	0	143
1	2958	0	143
1	3164	0	144
1	3240	0	144
1	3760	0	144
1	4052	0	144
1	4196	0	144
1	4356	0	144
1	4380	0	144
1	4532	0	144
1	5736	0	144
1	6272	0	144
1	6332	0	144
1	6744	0	144
1	7512	0	144
1	8480	0	144
1	8552	0	144
2	3	0	3
2	120	0	61
2	181	0	73
2	359	0	105
2	417	0	110
2	575	0	119
2	614	0	119
2	635	0	119
2	683	0	119
2	796	0	123
2	809	0	123
2	1032	0	136
2	1104	0	136
2	1178	0	136
2	1464	0	137
2	1522	0	141
2	1530	0	141
2	1668	0	141
2	1708	0	141
2	1742	0	141
2	1748	0	141
2	1774	0	141
2	2002	0	143
2	2058	0	143
2	2160	0	143
2	2242	0	143
2	2266	0	143
2	2272	0	143
2	2348	0	143
2	2616	0	143
2	2714	0	143
2	3452	0	144
2	4064	0	144
2	4212	0	144
2	4348	0	144
2	4384	0	144
2	5112	0	144
2	5252	0	144
2	5448	0	144
2	5468	0	144
2	5880	0	144
2	6412	0	144
2	6440	0	144
2	6768	0	144
2	7008	0	144
2	7240	0	144
2	7320	0	144
2	7888	0	144
2	8840	0	144
3	4	0	4
3	18	0	15
3	34	0	27
3	98	0	56
3	117	0	60
3	127	0	64
3	133	0	65
3	160	0	69
3	195	0	74
3	197	0	74
3	398	0	110
3	541	0	119
3	583	0	119
3	636	0	119
3	758	0	123
3	1256	0	136
3	1326	0	137
3	1406	0	137
3	1486	0	137
3	1614	0	141
3	2244	0	143
3	2248	0	143
3	2320	0	143
3	2344	0	143
3	2364	0	143
3	2496	0	143
3	2608	0	143
3	3280	0	144
3	3440	0	144
3	3748	0	144
3	4000	0	144
3	5180	0	144
3	5292	0	144
3	5576	0	144
3	5992	0	144
3	6204	0	144
3	6424	0	144
3	6964	0	144
3	7312	0	144
3	7768	0	144
3	7904	0	144
3	8104	0	144
3	8368	0	144
3	8528	0	144
3	9280	0	144
4	5	0	5
4	23	0	18
4	240	0	80
4	282	0	97
4	579	0	119
4	738	0	123
4	1114	0	136
4	1190	0	136
4	1462	0	137
4	1580	0	141
4	2180	0	143
4	2232	0	143
4	2246	0	143
4	2314	0	143
4	2336	0	143
4	2866	0	143
4	2884	0	143
4	3520	0	144
4	3728	0	144
4	3828	0	144
4	5572	0	144
4	5700	0	144
4	5720	0	144
4	6000	0	144
4	6144	0	144
4	6316	0	144
4	6976	0	144
4	7296	0	144
4	8088	0	144
4	8584	0	144
4	8600	0	144
4	8792	0	144
4	8824	0	144
4	9240	0	144
5	6	0	6
5	8	0	7
5	102	0	56
5	163	0	69
5	171	0	70
5	290	0	98
5	511	0	117
5	580	0	119
5	631	0	119
5	685	0	119
5	754	0	123
5	995	0	135
5	1016	0	135
5	1030	0	136
5	1084	0	136
5	1148	0	136
5	1248	0	136
5	1348	0	137
5	1414	0	137
5	1452	0	137
5	1730	0	141
5	1986	0	143
5	2312	0	143
5	2342	0	143
5	2722	0	143
5	2840	0	143
5	2908	0	143
5	3180	0	144
5	3504	0	144
5	3536	0	144
5	3752	0	144
5	4444	0	144
5	4556	0	144
5	4736	0	144
5	5088	0	144
5	5104	0	144
5	5616	0	144
5	5732	0	144
5	6260	0	144
5	6312	0	144
5	6712	0	144
5	6820	0	144
5	6872	0	144
5	6968	0	144
5	7200	0	144
5	7272	0	144
5	8184	0	144
5	8296	0	144
6	7	0	7
6	70	0	48
6	77	0	48
6	97	0	56
6	138	0	66
6	198	0	74
6	534	0	119
6	716	0	123
6	762	0	123
6	1080	0	136
6	1090	0	136
6	1276	0	136
6	1372	0	137
6	1754	0	141
6	1876	0	143
6	2056	0	143
6	2082	0	143
6	2334	0	143
6	2780	0	143
6	2828	0	143
6	3252	0	144
6	3400	0	144
6	3912	0	144
6	4204	0	144
6	4268	0	144
6	4452	0	144
6	4660	0	144
6	5092	0	144
6	5100	0	144
6	5672	0	144
6	5832	0	144
6	5868	0	144
6	6336	0	144
6	6656	0	144
6	6676	0	144
6	6708	0	144
6	6716	0	144
6	6792	0	144
6	7192	0	144
6	7920	0	144
6	8032	0	144
7	9	0	8
7	24	0	18
7	113	0	59
7	194	0	74
7	233	0	79
7	337	0	104
7	400	0	110
7	441	0	110
7	515	0	117
7	621	0	119
7	634	0	119
7	651	0	119
7	674	0	119
7	725	0	123
7	794	0	123
7	852	0	124
7	1040	0	136
7	1068	0	136
7	1126	0	136
7	1182	0	136
7	1188	0	136
7	1272	0	136
7	1480	0	137
7	1518	0	141
7	1532	0	141
7	1624	0	141
7	1892	0	143
7	1962	0	143
7	2080	0	143
7	2142	0	143
7	2182	0	143
7	2276	0	143
7	2330	0	143
7	2426	0	143
7	2502	0	143
7	2540	0	143
7	2552	0	143
7	2662	0	143
7	2812	0	143
7	2922	0	143
7	2926	0	143
7	3156	0	144
7	3196	0	144
7	3292	0	144
7	3408	0	144
7	3476	0	144
7	3496	0	144
7	3552	0	144
7	4208	0	144
7	4632	0	144
7	4688	0	144
7	5248	0	144
7	6280	0	144
7	6612	0	144
7	6736	0	144
7	6868	0	144
7	7208	0	144
7	7872	0	144
7	8384	0	144
7	8520	0	144
7	9256	0	144
8	10	0	9
8	44	0	34
8	65	0	46
8	140	0	66
8	200	0	74
8	207	0	77
8	321	0	102
8	366	0	105
8	426	0	110
8	536	0	119
8	744	0	123
8	797	0	123
8	886	0	125
8	991	0	135
8	994	0	135
8	1076	0	136
8	1384	0	137
8	1872	0	143
8	2112	0	143
8	2132	0	143
8	2202	0	143
8	2308	0	143
8	2350	0	143
8	2556	0	143
8	2600	0	143
8	2718	0	143
8	2738	0	143
8	2778	0	143
8	2806	0	143
8	2870	0	143
8	3756	0	144
8	4312	0	144
8	4456	0	144
8	5996	0	144
8	6200	0	144
8	6228	0	144
8	6384	0	144
8	7144	0	144
8	7232	0	144
8	7472	0	144
8	7672	0	144
8	9128	0	144
9	11	0	10
9	320	0	102
9	402	0	110
9	739	0	123
9	741	0	123
9	862	0	124
9	1280	0	136
9	4120	0	144
9	5432	0	144
9	5600	0	144
9	7152	0	144
10	12	0	11
10	183	0	73
10	329	0	104
10	396	0	110
10	861	0	124
10	2892	0	143
10	3804	0	144
10	3880	0	144
10	3888	0	144
10	4968	0	144
10	5008	0	144
10	5704	0	144
11	13	0	12
11	22	0	18
11	83	0	51
11	385	0	109
11	401	0	110
11	687	0	119
11	743	0	123
11	860	0	124
11	1322	0	137
11	1498	0	140
11	2158	0	143
11	2410	0	143
11	2664	0	143
11	2814	0	143
11	2818	0	143
11	2902	0	143
11	3380	0	144
11	3624	0	144
11	3824	0	144
11	3832	0	144
11	4088	0	144
11	4116	0	144
11	4440	0	144
11	4964	0	144
11	5240	0	144
11	5416	0	144
11	5424	0	144
11	5484	0	144
11	6212	0	144
11	7160	0	144
11	7400	0	144
11	8760	0	144
12	14	0	13
12	16	0	14
12	325	0	103
12	1208	0	136
12	1262	0	136
12	1458	0	137
12	1512	0	141
12	2074	0	143
12	3768	0	144
12	3896	0	144
12	5328	0	144
13	15	0	14
13	380	0	105
13	704	0	122
13	859	0	124
13	1524	0	141
13	1528	0	141
13	1802	0	141
13	1810	0	141
13	2900	0	143
13	3772	0	144
13	3800	0	144
13	5324	0	144
14	17	0	15
14	294	0	98
14	537	0	119
14	706	0	122
14	713	0	123
14	1118	0	136
14	1454	0	137
14	1928	0	143
14	2618	0	143
14	2686	0	143
14	2862	0	143
14	2886	0	143
14	3176	0	144
14	3352	0	144
14	3616	0	144
14	3688	0	144
14	3764	0	144
14	5236	0	144
14	5412	0	144
14	5428	0	144
14	5612	0	144
14	7216	0	144
14	8416	0	144
15	19	0	16
15	228	0	79
15	376	0	105
15	440	0	110
15	593	0	119
15	597	0	119
15	620	0	119
15	682	0	119
15	841	0	124
15	1066	0	136
15	1180	0	136
15	1222	0	136
15	1268	0	136
15	1332	0	137
15	1618	0	141
15	1650	0	141
15	1680	0	141
15	2060	0	143
15	2152	0	143
15	2226	0	143
15	2372	0	143
15	2458	0	143
15	2612	0	143
15	2788	0	143
15	3224	0	144
15	3456	0	144
15	3480	0	144
15	3964	0	144
15	3980	0	144
15	4488	0	144
15	5164	0	144
15	5352	0	144
15	6248	0	144
15	6528	0	144
15	6584	0	144
15	6680	0	144
15	6760	0	144
15	7056	0	144
15	8224	0	144
15	8632	0	144
15	9040	0	144
15	9296	0	144
15	9328	0	144
16	20	0	17
16	107	0	57
16	135	0	66
16	143	0	66
16	210	0	77
16	215	0	77
16	222	0	77
16	244	0	80
16	533	0	119
16	564	0	119
16	568	0	119
16	721	0	123
16	757	0	123
16	848	0	124
16	996	0	135
16	1898	0	143
16	1938	0	143
16	1942	0	143
16	1960	0	143
16	2070	0	143
16	2660	0	143
16	2796	0	143
16	2834	0	143
16	2842	0	143
16	2918	0	143
16	2942	0	143
16	3596	0	144
16	4412	0	144
16	4704	0	144
16	4712	0	144
16	5512	0	144
16	5924	0	144
16	6724	0	144
16	7352	0	144
16	7984	0	144
16	8304	0	144
16	8392	0	144
17	21	0	18
17	75	0	48
17	78	0	48
17	88	0	53
17	101	0	56
17	105	0	57
17	287	0	97
17	322	0	102
17	362	0	105
17	388	0	109
17	525	0	118
17	556	0	119
17	573	0	119
17	684	0	119
17	688	0	119
17	837	0	124
17	1062	0	136
17	1072	0	136
17	1226	0	136
17	1404	0	137
17	1592	0	141
17	1996	0	143
17	2044	0	143
17	2066	0	143
17	2108	0	143
17	2256	0	143
17	2684	0	143
17	2710	0	143
17	2824	0	143
17	2858	0	143
17	2888	0	143
17	2914	0	143
17	3436	0	144
17	3908	0	144
17	4752	0	144
17	5776	0	144
17	6156	0	144
17	6164	0	144
17	6208	0	144
17	6296	0	144
17	6308	0	144
17	6592	0	144
17	6632	0	144
17	6652	0	144
17	6684	0	144
17	6952	0	144
17	8112	0	144
17	8168	0	144
18	25	0	19
18	71	0	48
18	99	0	56
18	151	0	67
18	298	0	98
18	335	0	104
18	413	0	110
18	561	0	119
18	656	0	119
18	764	0	123
18	766	0	123
18	793	0	123
18	810	0	123
18	1014	0	135
18	1220	0	136
18	1420	0	137
18	1426	0	137
18	1574	0	141
18	1760	0	141
18	1852	0	143
18	1958	0	143
18	1988	0	143
18	2174	0	143
18	2524	0	143
18	2974	0	143
18	3404	0	144
18	3428	0	144
18	3856	0	144
18	3992	0	144
18	4320	0	144
18	4480	0	144
18	4504	0	144
18	4684	0	144
18	5864	0	144
18	6376	0	144
18	6516	0	144
18	6992	0	144
18	7024	0	144
18	7752	0	144
18	7880	0	144
18	8336	0	144
18	8464	0	144
18	9088	0	144
19	26	0	20
19	41	0	33
19	72	0	48
19	219	0	77
19	425	0	110
19	514	0	117
19	548	0	119
19	609	0	119
19	714	0	123
19	843	0	124
19	1358	0	137
19	1690	0	141
19	1786	0	141
19	1856	0	143
19	1870	0	143
19	1902	0	143
19	2148	0	143
19	2178	0	143
19	2190	0	143
19	2698	0	143
19	2732	0	143
19	2906	0	143
19	3336	0	144
19	4292	0	144
19	4428	0	144
19	4716	0	144
19	4940	0	144
19	5476	0	144
19	5552	0	144
19	5636	0	144
19	5964	0	144
19	6344	0	144
19	6444	0	144
19	6536	0	144
19	6596	0	144
19	6844	0	144
19	6972	0	144
19	7376	0	144
19	7408	0	144
19	7728	0	144
19	7832	0	144
19	8096	0	144
19	8216	0	144
19	8736	0	144
20	27	0	21
20	167	0	69
20	212	0	77
20	221	0	77
20	243	0	80
20	292	0	98
20	297	0	98
20	377	0	105
20	521	0	117
20	558	0	119
20	745	0	123
20	1136	0	136
20	1186	0	136
20	1196	0	136
20	1236	0	136
20	1410	0	137
20	1428	0	137
20	1474	0	137
20	1632	0	141
20	1750	0	141
20	1890	0	143
20	1940	0	143
20	1994	0	143
20	2004	0	143
20	2130	0	143
20	2166	0	143
20	2486	0	143
20	2526	0	143
20	2696	0	143
20	3344	0	144
20	3492	0	144
20	3644	0	144
20	3660	0	144
20	3976	0	144
20	3996	0	144
20	4044	0	144
20	5296	0	144
20	5356	0	144
20	5460	0	144
20	5588	0	144
20	5768	0	144
20	5860	0	144
20	5972	0	144
20	6556	0	144
20	6852	0	144
20	6896	0	144
20	8136	0	144
20	8536	0	144
21	28	0	22
21	74	0	48
21	90	0	54
21	123	0	61
21	164	0	69
21	190	0	74
21	245	0	80
21	318	0	102
21	368	0	105
21	386	0	109
21	523	0	117
21	540	0	119
21	559	0	119
21	570	0	119
21	733	0	123
21	812	0	123
21	863	0	124
21	947	0	134
21	1108	0	136
21	1200	0	136
21	1252	0	136
21	1352	0	137
21	1356	0	137
21	1388	0	137
21	1790	0	141
21	1926	0	143
21	2250	0	143
21	2432	0	143
21	2446	0	143
21	2528	0	143
21	2586	0	143
21	2602	0	143
21	2838	0	143
21	2882	0	143
21	2920	0	143
21	3692	0	144
21	3724	0	144
21	4160	0	144
21	4248	0	144
21	4276	0	144
21	5444	0	144
21	5480	0	144
21	5544	0	144
21	5892	0	144
21	6172	0	144
21	6692	0	144
21	6732	0	144
21	7968	0	144
21	8024	0	144
21	8192	0	144
21	8424	0	144
21	8752	0	144
21	8800	0	144
21	8904	0	144
21	9184	0	144
22	29	0	23
22	43	0	34
22	182	0	73
22	319	0	102
22	333	0	104
22	395	0	110
22	578	0	119
22	1374	0	137
22	1584	0	141
22	2860	0	143
22	3608	0	144
22	4140	0	144
22	4564	0	144
22	4696	0	144
22	5608	0	144
22	5620	0	144
22	5728	0	144
22	6408	0	144
22	6624	0	144
22	8768	0	144
23	30	0	24
23	60	0	45
23	73	0	48
23	152	0	67
23	443	0	110
23	613	0	119
23	639	0	119
23	729	0	123
23	1418	0	137
23	1434	0	137
23	1494	0	139
23	1516	0	141
23	1688	0	141
23	1954	0	143
23	2090	0	143
23	2146	0	143
23	2224	0	143
23	2318	0	143
23	2412	0	143
23	2666	0	143
23	3696	0	144
23	3816	0	144
23	4168	0	144
23	4308	0	144
23	4352	0	144
23	4408	0	144
23	4600	0	144
23	5084	0	144
23	5116	0	144
23	6540	0	144
23	6560	0	144
23	6628	0	144
23	6780	0	144
23	7736	0	144
23	8344	0	144
23	8400	0	144
23	8608	0	144
23	8912	0	144
23	8928	0	144
24	31	0	25
24	84	0	51
24	712	0	123
24	1122	0	136
24	1386	0	137
24	1496	0	139
24	2088	0	143
24	3736	0	144
24	3900	0	144
24	4084	0	144
24	6160	0	144
24	6264	0	144
24	6816	0	144
25	32	0	26
25	66	0	46
25	137	0	66
25	185	0	74
25	213	0	77
25	237	0	79
25	334	0	104
25	373	0	105
25	406	0	110
25	448	0	110
25	535	0	119
25	802	0	123
25	854	0	124
25	1130	0	136
25	1362	0	137
25	1380	0	137
25	1792	0	141
25	1920	0	143
25	1970	0	143
25	2006	0	143
25	2050	0	143
25	2304	0	143
25	2358	0	143
25	2550	0	143
25	2606	0	143
25	2658	0	143
25	2712	0	143
25	2936	0	143
25	2946	0	143
25	3256	0	144
25	3388	0	144
25	3712	0	144
25	3720	0	144
25	4224	0	144
25	4392	0	144
25	4568	0	144
25	5528	0	144
25	5564	0	144
25	6176	0	144
25	6960	0	144
25	8696	0	144
25	8832	0	144
25	9192	0	144
26	33	0	27
26	122	0	61
26	283	0	97
26	285	0	97
26	326	0	103
26	576	0	119
26	585	0	119
26	708	0	122
26	726	0	123
26	1152	0	136
26	1174	0	136
26	1278	0	136
26	1390	0	137
26	1590	0	141
26	1638	0	141
26	1712	0	141
26	1984	0	143
26	2078	0	143
26	2230	0	143
26	2822	0	143
26	2856	0	143
26	3168	0	144
26	3716	0	144
26	3732	0	144
26	5012	0	144
26	5244	0	144
26	6004	0	144
26	7224	0	144
26	8664	0	144
27	35	0	28
27	323	0	102
27	544	0	119
27	550	0	119
27	589	0	119
27	752	0	123
27	769	0	123
27	803	0	123
27	1064	0	136
27	1094	0	136
27	1206	0	136
27	1264	0	136
27	1344	0	137
27	1508	0	141
27	1514	0	141
27	1702	0	141
27	1756	0	141
27	1868	0	143
27	2032	0	143
27	2072	0	143
27	2094	0	143
27	2172	0	143
27	2428	0	143
27	2594	0	143
27	2646	0	143
27	2734	0	143
27	2748	0	143
27	2944	0	143
27	3356	0	144
27	3528	0	144
27	3604	0	144
27	3932	0	144
27	4232	0	144
27	4400	0	144
27	4560	0	144
27	4584	0	144
27	4676	0	144
27	5708	0	144
27	7304	0	144
27	7344	0	144
27	7360	0	144
27	8160	0	144
27	8448	0	144
27	9248	0	144
28	36	0	29
28	119	0	61
28	146	0	66
28	175	0	70
28	223	0	77
28	430	0	110
28	553	0	119
28	607	0	119
28	653	0	119
28	694	0	119
28	746	0	123
28	935	0	134
28	937	0	134
28	1184	0	136
28	1566	0	141
28	1620	0	141
28	1664	0	141
28	1684	0	141
28	1864	0	143
28	2168	0	143
28	2404	0	143
28	3304	0	144
28	3472	0	144
28	3668	0	144
28	3940	0	144
28	4644	0	144
28	5288	0	144
28	6236	0	144
28	6284	0	144
28	6364	0	144
28	6436	0	144
28	7032	0	144
28	7952	0	144
28	8944	0	144
28	9304	0	144
29	37	0	30
29	115	0	60
29	353	0	105
29	661	0	119
29	788	0	123
29	1838	0	143
29	2376	0	143
29	3576	0	144
29	3672	0	144
29	5952	0	144
29	6244	0	144
29	6832	0	144
29	6928	0	144
29	9024	0	144
30	38	0	31
30	306	0	101
30	355	0	105
30	528	0	118
30	530	0	119
30	647	0	119
30	787	0	123
30	2388	0	143
30	2520	0	143
30	3572	0	144
30	3580	0	144
30	5032	0	144
30	5040	0	144
30	5276	0	144
30	6912	0	144
30	6920	0	144
30	8960	0	144
31	39	0	32
31	226	0	79
31	309	0	102
31	645	0	119
31	649	0	119
31	664	0	119
31	723	0	123
31	2392	0	143
31	2638	0	143
31	2790	0	143
31	3952	0	144
31	4648	0	144
31	5172	0	144
31	5188	0	144
31	5208	0	144
31	5216	0	144
31	5940	0	144
31	5956	0	144
31	6472	0	144
31	6940	0	144
32	40	0	33
32	46	0	35
32	156	0	68
32	311	0	102
32	336	0	104
32	347	0	104
32	431	0	110
32	434	0	110
32	445	0	110
32	623	0	119
32	662	0	119
32	731	0	123
32	759	0	123
32	2194	0	143
32	2324	0	143
32	2394	0	143
32	2418	0	143
32	2614	0	143
32	4344	0	144
32	4492	0	144
32	4936	0	144
32	5076	0	144
32	5184	0	144
32	5840	0	144
32	5936	0	144
32	6428	0	144
32	7896	0	144
32	8128	0	144
32	8208	0	144
33	42	0	34
33	121	0	61
33	331	0	104
33	538	0	119
33	598	0	119
33	681	0	119
33	686	0	119
33	765	0	123
33	847	0	124
33	1210	0	136
33	1230	0	136
33	1260	0	136
33	1422	0	137
33	1460	0	137
33	1466	0	137
33	1492	0	139
33	1502	0	141
33	1966	0	143
33	2128	0	143
33	2136	0	143
33	2338	0	143
33	3188	0	144
33	3640	0	144
33	3872	0	144
33	4288	0	144
33	4420	0	144
33	4956	0	144
33	5320	0	144
33	5420	0	144
33	5540	0	144
33	5692	0	144
33	5748	0	144
33	5904	0	144
33	5928	0	144
33	6224	0	144
33	7248	0	144
33	7800	0	144
33	9272	0	144
34	45	0	35
34	61	0	45
34	153	0	67
34	343	0	104
34	374	0	105
34	622	0	119
34	652	0	119
34	671	0	119
34	849	0	124
34	895	0	125
34	997	0	135
34	1006	0	135
34	1138	0	136
34	1216	0	136
34	1238	0	136
34	1244	0	136
34	1886	0	143
34	2310	0	143
34	2366	0	143
34	2420	0	143
34	2504	0	143
34	2542	0	143
34	2652	0	143
34	2786	0	143
34	2932	0	143
34	2966	0	143
34	3184	0	144
34	3260	0	144
34	4200	0	144
34	4588	0	144
34	5108	0	144
34	5524	0	144
34	5664	0	144
34	6276	0	144
34	6356	0	144
34	6432	0	144
34	6996	0	144
34	7072	0	144
34	7792	0	144
34	7936	0	144
34	8312	0	144
34	8488	0	144
34	8568	0	144
34	8640	0	144
34	8808	0	144
35	47	0	36
35	54	0	40
35	145	0	66
35	289	0	98
35	563	0	119
35	592	0	119
35	611	0	119
35	715	0	123
35	777	0	123
35	931	0	134
35	1046	0	136
35	1054	0	136
35	1086	0	136
35	1394	0	137
35	1560	0	141
35	1678	0	141
35	1990	0	143
35	2042	0	143
35	2346	0	143
35	2494	0	143
35	2800	0	143
35	3700	0	144
35	3968	0	144
35	4216	0	144
35	4300	0	144
35	4336	0	144
35	4540	0	144
35	4608	0	144
35	4636	0	144
35	6368	0	144
35	6636	0	144
35	6660	0	144
35	6824	0	144
35	6876	0	144
35	7704	0	144
35	8248	0	144
35	8512	0	144
36	49	0	37
36	63	0	46
36	96	0	56
36	106	0	57
36	193	0	74
36	404	0	110
36	519	0	117
36	590	0	119
36	654	0	119
36	840	0	124
36	1112	0	136
36	1544	0	141
36	1586	0	141
36	1744	0	141
36	1780	0	141
36	1896	0	143
36	1948	0	143
36	1998	0	143
36	2038	0	143
36	2062	0	143
36	2134	0	143
36	2228	0	143
36	2726	0	143
36	2940	0	143
36	3376	0	144
36	3620	0	144
36	4056	0	144
36	4436	0	144
36	4672	0	144
36	4728	0	144
36	4928	0	144
36	5124	0	144
36	5496	0	144
36	5632	0	144
36	5716	0	144
36	5772	0	144
36	5912	0	144
36	6148	0	144
36	6416	0	144
36	6460	0	144
36	6616	0	144
36	6776	0	144
36	6864	0	144
36	7440	0	144
36	7744	0	144
36	8456	0	144
37	50	0	38
37	76	0	48
37	147	0	66
37	220	0	77
37	229	0	79
37	316	0	102
37	512	0	117
37	588	0	119
37	632	0	119
37	638	0	119
37	676	0	119
37	946	0	134
37	1024	0	136
37	1092	0	136
37	1212	0	136
37	1562	0	141
37	1770	0	141
37	2306	0	143
37	2424	0	143
37	2548	0	143
37	2630	0	143
37	2676	0	143
37	2708	0	143
37	2730	0	143
37	2810	0	143
37	3208	0	144
37	3360	0	144
37	3600	0	144
37	4476	0	144
37	4724	0	144
37	5072	0	144
37	5148	0	144
37	5392	0	144
37	5464	0	144
37	5660	0	144
37	6380	0	144
37	6644	0	144
37	6720	0	144
37	7264	0	144
37	7504	0	144
37	8288	0	144
37	8432	0	144
38	51	0	39
38	53	0	40
38	131	0	64
38	231	0	79
38	421	0	110
38	424	0	110
38	545	0	119
38	641	0	119
38	677	0	119
38	722	0	123
38	770	0	123
38	774	0	123
38	851	0	124
38	1146	0	136
38	1232	0	136
38	1694	0	141
38	1720	0	141
38	1848	0	143
38	1910	0	143
38	1950	0	143
38	2036	0	143
38	2104	0	143
38	2274	0	143
38	2508	0	143
38	2636	0	143
38	3844	0	144
38	4104	0	144
38	4152	0	144
38	4640	0	144
38	4708	0	144
38	5340	0	144
38	5520	0	144
38	5644	0	144
38	6220	0	144
38	6788	0	144
38	6856	0	144
38	6880	0	144
38	7864	0	144
38	8048	0	144
39	52	0	40
39	199	0	74
39	365	0	105
39	405	0	110
39	637	0	119
39	751	0	123
39	835	0	124
39	1106	0	136
39	1228	0	136
39	1274	0	136
39	1370	0	137
39	1488	0	137
39	1758	0	141
39	2030	0	143
39	2096	0	143
39	2512	0	143
39	2654	0	143
39	2830	0	143
39	2910	0	143
39	3236	0	144
39	4068	0	144
39	4132	0	144
39	4252	0	144
39	4404	0	144
39	4500	0	144
39	4528	0	144
39	4680	0	144
39	4952	0	144
39	5312	0	144
39	5504	0	144
39	5532	0	144
39	5668	0	144
39	5968	0	144
39	6292	0	144
39	6452	0	144
39	6748	0	144
39	6764	0	144
39	7464	0	144
39	7928	0	144
39	8040	0	144
40	55	0	41
40	82	0	51
40	149	0	66
40	158	0	68
40	303	0	100
40	361	0	105
40	549	0	119
40	678	0	119
40	850	0	124
40	1000	0	135
40	1340	0	137
40	1424	0	137
40	1490	0	138
40	1776	0	141
40	1860	0	143
40	1884	0	143
40	1964	0	143
40	2118	0	143
40	2164	0	143
40	2278	0	143
40	2514	0	143
40	2546	0	143
40	2620	0	143
40	2750	0	143
40	2952	0	143
40	2970	0	143
40	3200	0	144
40	3372	0	144
40	3412	0	144
40	4004	0	144
40	4468	0	144
40	4932	0	144
40	5516	0	144
40	5560	0	144
40	6572	0	144
40	6696	0	144
40	7848	0	144
40	8064	0	144
40	8408	0	144
40	8576	0	144
40	9320	0	144
41	56	0	42
41	91	0	54
41	103	0	56
41	186	0	74
41	509	0	117
41	1060	0	136
41	1140	0	136
41	1416	0	137
41	2024	0	143
41	2064	0	143
41	2222	0	143
41	2280	0	143
41	2368	0	143
41	2536	0	143
41	2692	0	143
41	2938	0	143
41	2982	0	143
41	3152	0	143
41	4240	0	144
41	4624	0	144
41	4756	0	144
41	4948	0	144
41	5068	0	144
41	5656	0	144
41	5760	0	144
41	5820	0	144
41	7680	0	144
41	8016	0	144
41	8560	0	144
41	9072	0	144
42	57	0	43
42	203	0	75
42	341	0	104
42	870	0	125
42	2282	0	143
42	2290	0	143
42	2562	0	143
42	3004	0	143
42	3084	0	143
42	5788	0	144
42	5796	0	144
42	5816	0	144
42	6040	0	144
43	58	0	44
43	87	0	53
43	110	0	58
43	214	0	77
43	218	0	77
43	232	0	79
43	340	0	104
43	344	0	104
43	591	0	119
43	734	0	123
43	990	0	135
43	1224	0	136
43	1350	0	137
43	1364	0	137
43	1368	0	137
43	1408	0	137
43	1478	0	137
43	1878	0	143
43	2554	0	143
43	2560	0	143
43	2690	0	143
43	3244	0	144
43	4188	0	144
43	4552	0	144
43	4740	0	144
43	5064	0	144
43	5144	0	144
43	5756	0	144
43	5764	0	144
43	5780	0	144
43	5900	0	144
43	5980	0	144
43	7480	0	144
43	7992	0	144
43	8704	0	144
43	9096	0	144
44	59	0	45
44	295	0	98
44	312	0	102
44	372	0	105
44	438	0	110
44	625	0	119
44	627	0	119
44	657	0	119
44	719	0	123
44	735	0	123
44	756	0	123
44	795	0	123
44	842	0	124
44	934	0	134
44	1018	0	135
44	1194	0	136
44	1570	0	141
44	1598	0	141
44	1610	0	141
44	1906	0	143
44	1918	0	143
44	1930	0	143
44	2150	0	143
44	2322	0	143
44	2516	0	143
44	2610	0	143
44	2802	0	143
44	3212	0	144
44	3836	0	144
44	4396	0	144
44	4748	0	144
44	5232	0	144
44	5932	0	144
44	6180	0	144
44	6532	0	144
44	6700	0	144
44	6796	0	144
44	6948	0	144
44	7840	0	144
44	8256	0	144
44	8496	0	144
44	9264	0	144
45	62	0	46
45	64	0	46
45	173	0	70
45	217	0	77
45	412	0	110
45	418	0	110
45	437	0	110
45	808	0	123
45	855	0	124
45	944	0	134
45	1026	0	136
45	1116	0	136
45	1250	0	136
45	1258	0	136
45	1392	0	137
45	1578	0	141
45	1646	0	141
45	1718	0	141
45	1922	0	143
45	2352	0	143
45	2656	0	143
45	2680	0	143
45	3204	0	144
45	3340	0	144
45	3444	0	144
45	4048	0	144
45	4596	0	144
45	4664	0	144
45	5016	0	144
45	5052	0	144
45	5128	0	144
45	5856	0	144
45	6456	0	144
45	6568	0	144
45	6688	0	144
45	7128	0	144
45	7496	0	144
45	7960	0	144
45	8080	0	144
45	9064	0	144
46	67	0	47
46	271	0	94
46	458	0	112
46	470	0	114
46	505	0	117
46	889	0	125
46	960	0	134
46	2294	0	143
46	2298	0	143
46	6328	0	144
47	68	0	48
47	112	0	59
47	242	0	80
47	342	0	104
47	391	0	109
47	520	0	117
47	571	0	119
47	675	0	119
47	728	0	123
47	864	0	124
47	894	0	125
47	1036	0	136
47	1218	0	136
47	1644	0	141
47	1674	0	141
47	1716	0	141
47	1888	0	143
47	1956	0	143
47	2048	0	143
47	2332	0	143
47	2672	0	143
47	2754	0	143
47	2984	0	143
47	3264	0	144
47	5984	0	144
47	6888	0	144
48	79	0	49
48	387	0	109
48	390	0	109
48	444	0	110
48	539	0	119
48	630	0	119
48	767	0	123
48	772	0	123
48	1012	0	135
48	1142	0	136
48	1254	0	136
48	1342	0	137
48	1430	0	137
48	1444	0	137
48	1634	0	141
48	1766	0	141
48	1932	0	143
48	2138	0	143
48	2430	0	143
48	2960	0	143
48	3296	0	144
48	3972	0	144
48	4008	0	144
48	4036	0	144
48	4284	0	144
48	4296	0	144
48	4512	0	144
48	4912	0	144
48	5376	0	144
48	5712	0	144
48	6256	0	144
48	6600	0	144
48	6648	0	144
48	6704	0	144
48	6956	0	144
48	7080	0	144
48	7120	0	144
48	7416	0	144
48	7448	0	144
48	8240	0	144
48	8648	0	144
48	9336	0	144
49	80	0	50
49	95	0	56
49	100	0	56
49	174	0	70
49	304	0	100
49	436	0	110
49	555	0	119
49	616	0	119
49	705	0	122
49	730	0	123
49	1214	0	136
49	1400	0	137
49	1686	0	141
49	2414	0	143
49	3628	0	144
49	3636	0	144
49	3812	0	144
49	4668	0	144
49	5152	0	144
49	5404	0	144
49	6152	0	144
49	6252	0	144
49	6340	0	144
49	6508	0	144
49	6904	0	144
49	7168	0	144
49	7256	0	144
49	7696	0	144
49	8504	0	144
50	81	0	51
50	144	0	66
50	216	0	77
50	358	0	105
50	435	0	110
50	750	0	123
50	799	0	123
50	836	0	124
50	838	0	124
50	844	0	124
50	941	0	134
50	943	0	134
50	1330	0	137
50	1472	0	137
50	1630	0	141
50	1846	0	143
50	1894	0	143
50	2154	0	143
50	2170	0	143
50	2186	0	143
50	2328	0	143
50	2500	0	143
50	2510	0	143
50	2844	0	143
50	3312	0	144
50	3592	0	144
50	3868	0	144
50	3936	0	144
50	4520	0	144
50	4616	0	144
50	4652	0	144
50	5120	0	144
50	5136	0	144
50	5452	0	144
50	5584	0	144
50	5684	0	144
50	5876	0	144
50	6304	0	144
50	6372	0	144
50	6564	0	144
50	7096	0	144
50	7384	0	144
50	8264	0	144
51	85	0	52
51	92	0	54
51	136	0	66
51	141	0	66
51	162	0	69
51	235	0	79
51	239	0	80
51	363	0	105
51	411	0	110
51	510	0	117
51	582	0	119
51	727	0	123
51	945	0	134
51	998	0	135
51	1082	0	136
51	1172	0	136
51	1500	0	141
51	1534	0	141
51	1738	0	141
51	1764	0	141
51	1900	0	143
51	2046	0	143
51	2098	0	143
51	2116	0	143
51	2144	0	143
51	2200	0	143
51	2316	0	143
51	2444	0	143
51	2752	0	143
51	2904	0	143
51	2934	0	143
51	2978	0	143
51	3148	0	143
51	3348	0	144
51	4112	0	144
51	4144	0	144
51	4260	0	144
51	4544	0	144
51	4576	0	144
51	4700	0	144
51	5696	0	144
51	5828	0	144
51	6140	0	144
51	6668	0	144
51	8440	0	144
51	8744	0	144
51	9344	0	145
52	86	0	53
52	139	0	66
52	241	0	80
52	286	0	97
52	339	0	104
52	415	0	110
52	518	0	117
52	566	0	119
52	680	0	119
52	1176	0	136
52	1198	0	136
52	1338	0	137
52	1446	0	137
52	1622	0	141
52	1642	0	141
52	2028	0	143
52	2120	0	143
52	2156	0	143
52	2238	0	143
52	2670	0	143
52	2826	0	143
52	2848	0	143
52	2972	0	143
52	3248	0	144
52	3420	0	144
52	3612	0	144
52	3916	0	144
52	4128	0	144
52	4180	0	144
52	4508	0	144
52	5156	0	144
52	5500	0	144
52	5624	0	144
52	6800	0	144
52	8176	0	144
52	8272	0	144
52	8360	0	144
52	8592	0	144
52	8712	0	144
52	8728	0	144
53	89	0	54
53	330	0	104
53	379	0	105
53	807	0	123
53	856	0	124
53	999	0	135
53	1124	0	136
53	1740	0	141
53	1924	0	143
53	2084	0	143
53	2114	0	143
53	2236	0	143
53	2604	0	143
53	3192	0	144
53	3744	0	144
53	6008	0	144
53	6672	0	144
54	93	0	55
54	166	0	69
54	188	0	74
54	313	0	102
54	315	0	102
54	408	0	110
54	414	0	110
54	428	0	110
54	543	0	119
54	581	0	119
54	655	0	119
54	717	0	123
54	865	0	124
54	1038	0	136
54	1128	0	136
54	1700	0	141
54	2110	0	143
54	2198	0	143
54	2622	0	143
54	2694	0	143
54	2716	0	143
54	2954	0	143
54	4028	0	144
54	4316	0	144
54	4472	0	144
54	4536	0	144
54	4604	0	144
54	4944	0	144
54	5472	0	144
54	5508	0	144
54	5640	0	144
54	5744	0	144
54	5908	0	144
54	6192	0	144
54	6552	0	144
54	6728	0	144
54	7184	0	144
54	7784	0	144
55	94	0	56
55	109	0	58
55	154	0	67
55	360	0	105
55	370	0	105
55	420	0	110
55	432	0	110
55	513	0	117
55	650	0	119
55	665	0	119
55	672	0	119
55	679	0	119
55	801	0	123
55	940	0	134
55	1102	0	136
55	1398	0	137
55	1470	0	137
55	1538	0	141
55	1698	0	141
55	1866	0	143
55	2122	0	143
55	2126	0	143
55	2452	0	143
55	2634	0	143
55	2678	0	143
55	2792	0	143
55	2928	0	143
55	3228	0	144
55	3544	0	144
55	3684	0	144
55	4024	0	144
55	4060	0	144
55	4092	0	144
55	4176	0	144
55	4516	0	144
55	5048	0	144
55	5220	0	144
55	5384	0	144
55	5648	0	144
55	6184	0	144
55	6216	0	144
55	6468	0	144
55	6752	0	144
55	7776	0	144
55	8976	0	144
56	104	0	57
56	128	0	64
56	130	0	64
56	291	0	98
56	375	0	105
56	569	0	119
56	640	0	119
56	690	0	119
56	853	0	124
56	1074	0	136
56	1204	0	136
56	1520	0	141
56	1536	0	141
56	1546	0	141
56	1626	0	141
56	1704	0	141
56	1722	0	141
56	1788	0	141
56	1946	0	143
56	2026	0	143
56	2188	0	143
56	2356	0	143
56	2362	0	143
56	2544	0	143
56	2558	0	143
56	2742	0	143
56	2784	0	143
56	2924	0	143
56	4304	0	144
56	4924	0	144
56	5224	0	144
56	5548	0	144
56	5652	0	144
56	5824	0	144
56	5888	0	144
56	5896	0	144
56	5976	0	144
56	6544	0	144
56	6740	0	144
56	6756	0	144
56	6784	0	144
56	6860	0	144
56	7488	0	144
56	8008	0	144
56	8920	0	144
57	108	0	58
57	157	0	68
57	423	0	110
57	446	0	110
57	532	0	119
57	642	0	119
57	1042	0	136
57	1052	0	136
57	1100	0	136
57	1602	0	141
57	1648	0	141
57	1944	0	143
57	2184	0	143
57	2264	0	143
57	2456	0	143
57	2628	0	143
57	2632	0	143
57	3988	0	144
57	4020	0	144
57	4324	0	144
57	5344	0	144
57	5848	0	144
57	6848	0	144
57	7064	0	144
57	7112	0	144
58	111	0	59
58	202	0	75
58	834	0	124
58	866	0	124
58	988	0	135
58	2756	0	143
58	3096	0	143
58	4904	0	144
58	5784	0	144
58	6056	0	144
58	8864	0	144
59	114	0	60
59	116	0	60
59	177	0	71
59	180	0	73
59	299	0	98
59	600	0	119
59	673	0	119
59	724	0	123
59	786	0	123
59	792	0	123
59	1002	0	135
59	1440	0	137
59	1654	0	141
59	1660	0	141
59	2260	0	143
59	2522	0	143
59	2642	0	143
59	3320	0	144
59	3332	0	144
59	3564	0	144
59	3860	0	144
59	4100	0	144
59	4328	0	144
59	5176	0	144
59	5256	0	144
59	5348	0	144
59	5380	0	144
59	5948	0	144
59	5960	0	144
59	6348	0	144
59	7720	0	144
59	8376	0	144
60	118	0	61
60	165	0	69
60	211	0	77
60	236	0	79
60	364	0	105
60	369	0	105
60	407	0	110
60	410	0	110
60	422	0	110
60	516	0	117
60	572	0	119
60	624	0	119
60	736	0	123
60	760	0	123
60	1628	0	141
60	1706	0	141
60	2000	0	143
60	2040	0	143
60	2052	0	143
60	2100	0	143
60	2196	0	143
60	2498	0	143
60	2682	0	143
60	2912	0	143
60	2956	0	143
60	2980	0	143
60	3232	0	144
60	3664	0	144
60	3708	0	144
60	4148	0	144
60	4524	0	144
60	4920	0	144
60	5852	0	144
60	6576	0	144
60	6588	0	144
60	6664	0	144
60	7824	0	144
60	7976	0	144
60	8624	0	144
60	8848	0	144
61	124	0	62
61	129	0	64
61	209	0	77
61	314	0	102
61	332	0	104
61	346	0	104
61	409	0	110
61	427	0	110
61	517	0	117
61	562	0	119
61	718	0	123
61	763	0	123
61	857	0	124
61	1056	0	136
61	1328	0	137
61	1334	0	137
61	1484	0	137
61	1696	0	141
61	1772	0	141
61	1784	0	141
61	2092	0	143
61	2668	0	143
61	2728	0	143
61	2836	0	143
61	2968	0	143
61	3172	0	144
61	4156	0	144
61	4272	0	144
61	4548	0	144
61	4656	0	144
61	5740	0	144
61	5836	0	144
61	7424	0	144
61	8200	0	144
61	8232	0	144
61	8936	0	144
61	9288	0	144
62	125	0	63
62	189	0	74
62	230	0	79
62	439	0	110
62	737	0	123
62	753	0	123
62	811	0	123
62	1070	0	136
62	1120	0	136
62	1636	0	141
62	1710	0	141
62	1778	0	141
62	1880	0	143
62	2804	0	143
62	2846	0	143
62	2852	0	143
62	3424	0	144
62	3652	0	144
62	3852	0	144
62	4136	0	144
62	5020	0	144
62	5060	0	144
62	5332	0	144
62	5400	0	144
62	5568	0	144
62	5592	0	144
62	6188	0	144
62	6288	0	144
62	6900	0	144
62	7136	0	144
62	7336	0	144
62	7816	0	144
62	8144	0	144
62	9120	0	144
63	126	0	64
63	187	0	74
63	208	0	77
63	234	0	79
63	399	0	110
63	546	0	119
63	633	0	119
63	1044	0	136
63	1110	0	136
63	1144	0	136
63	1366	0	137
63	1726	0	141
63	1912	0	143
63	2268	0	143
63	2370	0	143
63	2506	0	143
63	2538	0	143
63	2596	0	143
63	2624	0	143
63	2782	0	143
63	2794	0	143
63	2832	0	143
63	3276	0	144
63	3448	0	144
63	3548	0	144
63	3920	0	144
63	4108	0	144
63	4236	0	144
63	4432	0	144
63	4460	0	144
63	5316	0	144
63	5676	0	144
63	6548	0	144
63	6580	0	144
63	6604	0	144
63	7760	0	144
63	8280	0	144
63	8544	0	144
64	132	0	65
64	142	0	66
64	148	0	66
64	1008	0	135
64	1246	0	136
64	1346	0	137
64	1354	0	137
64	1450	0	137
64	1468	0	137
64	1504	0	141
64	1576	0	141
64	1714	0	141
64	2254	0	143
64	2270	0	143
64	2798	0	143
64	2916	0	143
64	3272	0	144
64	3284	0	144
64	3308	0	144
64	3416	0	144
64	3500	0	144
64	3656	0	144
64	3848	0	144
64	4032	0	144
64	4184	0	144
64	4572	0	144
64	4628	0	144
64	5680	0	144
64	6168	0	144
64	6232	0	144
64	6300	0	144
64	6608	0	144
64	6620	0	144
64	6772	0	144
64	6892	0	144
64	7176	0	144
64	7456	0	144
64	7688	0	144
64	7944	0	144
64	8816	0	144
64	9056	0	144
65	134	0	66
65	284	0	97
65	293	0	98
65	296	0	98
65	397	0	110
65	574	0	119
65	626	0	119
65	755	0	123
65	804	0	123
65	1202	0	136
65	1324	0	137
65	1412	0	137
65	1432	0	137
65	1676	0	141
65	1728	0	141
65	2034	0	143
65	2054	0	143
65	2340	0	143
65	2688	0	143
65	2890	0	143
65	3288	0	144
65	3532	0	144
65	3904	0	144
65	4076	0	144
65	4192	0	144
65	4580	0	144
65	4620	0	144
65	5056	0	144
65	5140	0	144
65	5304	0	144
65	5336	0	144
65	5488	0	144
65	6980	0	144
65	6988	0	144
65	7392	0	144
65	7808	0	144
65	8000	0	144
66	150	0	67
66	522	0	117
66	557	0	119
66	693	0	119
66	761	0	123
66	1098	0	136
66	1482	0	137
66	1540	0	141
66	1672	0	141
66	1734	0	141
66	1762	0	141
66	2176	0	143
66	2740	0	143
66	2808	0	143
66	3392	0	144
66	4264	0	144
66	4280	0	144
66	4388	0	144
66	4732	0	144
66	4908	0	144
66	5300	0	144
66	5372	0	144
66	5396	0	144
66	5988	0	144
66	7016	0	144
66	8120	0	144
66	8328	0	144
66	8856	0	144
66	9080	0	144
67	155	0	68
67	349	0	105
67	628	0	119
67	660	0	119
67	776	0	123
67	1022	0	136
67	1572	0	141
67	1608	0	141
67	1692	0	141
67	1850	0	143
67	1908	0	143
67	2390	0	143
67	2706	0	143
67	2930	0	143
67	3300	0	144
67	3944	0	144
67	4016	0	144
67	4096	0	144
67	5036	0	144
68	159	0	69
68	227	0	79
68	389	0	109
68	433	0	110
68	526	0	118
68	587	0	119
68	599	0	119
68	615	0	119
68	629	0	119
68	644	0	119
68	666	0	119
68	670	0	119
68	691	0	119
68	782	0	123
68	839	0	124
68	846	0	124
68	896	0	125
68	1242	0	136
68	1402	0	137
68	1612	0	141
68	1670	0	141
68	1782	0	141
68	1914	0	143
68	2068	0	143
68	2106	0	143
68	2258	0	143
68	2402	0	143
68	2644	0	143
68	2976	0	143
68	3368	0	144
68	3560	0	144
68	3924	0	144
68	4072	0	144
68	4332	0	144
68	5096	0	144
68	5360	0	144
68	5368	0	144
68	5456	0	144
68	5556	0	144
68	7040	0	144
68	7104	0	144
68	8072	0	144
68	8720	0	144
68	9312	0	144
69	170	0	70
69	192	0	74
69	317	0	102
69	338	0	104
69	419	0	110
69	542	0	119
69	567	0	119
69	584	0	119
69	1010	0	135
69	1034	0	136
69	1476	0	137
69	1588	0	141
69	1882	0	143
69	1968	0	143
69	2252	0	143
69	2360	0	143
69	2448	0	143
69	2598	0	143
69	3268	0	144
69	3556	0	144
69	4244	0	144
69	4256	0	144
69	4720	0	144
69	4744	0	144
69	5752	0	144
69	7432	0	144
69	7912	0	144
69	8320	0	144
69	8616	0	144
70	176	0	71
70	606	0	119
70	898	0	125
70	1656	0	141
70	2702	0	143
70	3328	0	144
70	5200	0	144
70	5264	0	144
70	6488	0	144
70	6936	0	144
70	8952	0	144
71	178	0	72
71	354	0	105
71	601	0	119
71	618	0	119
71	648	0	119
71	748	0	123
71	790	0	123
71	2386	0	143
71	3464	0	144
71	3676	0	144
71	5204	0	144
71	9008	0	144
72	179	0	73
72	300	0	98
72	307	0	101
72	357	0	105
72	531	0	119
72	596	0	119
72	663	0	119
72	942	0	134
72	1606	0	141
72	2326	0	143
72	2374	0	143
72	2380	0	143
72	2384	0	143
72	3948	0	144
72	5260	0	144
72	5280	0	144
72	6240	0	144
72	6836	0	144
72	6916	0	144
73	184	0	74
73	403	0	110
73	742	0	123
73	992	0	135
73	1150	0	136
73	1510	0	141
73	1746	0	141
73	1794	0	141
73	1800	0	141
73	2076	0	143
73	2086	0	143
73	2864	0	143
73	2894	0	143
73	3508	0	144
73	3892	0	144
73	5440	0	144
73	5492	0	144
73	6808	0	144
73	7280	0	144
73	7328	0	144
73	9112	0	144
74	201	0	75
74	204	0	75
74	250	0	82
74	454	0	112
74	469	0	114
74	503	0	117
74	508	0	117
74	822	0	123
74	883	0	125
74	885	0	125
74	1164	0	136
74	1980	0	143
74	2008	0	143
74	2530	0	143
74	2764	0	143
74	2880	0	143
74	3068	0	143
74	4760	0	144
74	4784	0	144
74	4860	0	144
74	7640	0	144
74	8896	0	144
74	9136	0	144
74	9200	0	144
75	205	0	76
75	249	0	82
75	473	0	114
75	487	0	115
75	492	0	115
75	882	0	125
75	892	0	125
75	979	0	135
75	1286	0	136
75	2288	0	143
75	2564	0	143
75	3036	0	143
75	4788	0	144
75	4896	0	144
75	6092	0	144
75	7528	0	144
75	9224	0	144
76	206	0	77
76	506	0	117
76	819	0	123
76	962	0	134
76	1168	0	136
76	1318	0	137
76	1978	0	143
76	2772	0	143
76	2872	0	143
76	3000	0	143
76	3016	0	143
76	3072	0	143
76	4376	0	144
76	6036	0	144
76	6128	0	144
76	9176	0	144
76	9208	0	144
77	224	0	78
77	352	0	105
77	554	0	119
77	594	0	119
77	646	0	119
77	667	0	119
77	749	0	123
77	778	0	123
77	784	0	123
77	1004	0	135
77	1240	0	136
77	1442	0	137
77	1558	0	141
77	1568	0	141
77	1904	0	143
77	2192	0	143
77	2962	0	143
77	3316	0	144
77	4012	0	144
77	4484	0	144
77	4612	0	144
77	5192	0	144
77	6504	0	144
77	6520	0	144
77	6640	0	144
77	7088	0	144
77	9016	0	144
77	9032	0	144
78	225	0	79
78	350	0	105
78	595	0	119
78	658	0	119
78	695	0	119
78	747	0	123
78	780	0	123
78	785	0	123
78	939	0	134
78	1658	0	141
78	1844	0	143
78	1916	0	143
78	2396	0	143
78	2640	0	143
78	3216	0	144
78	3324	0	144
78	3568	0	144
78	3588	0	144
78	3680	0	144
78	3984	0	144
78	5364	0	144
78	6492	0	144
78	6500	0	144
78	6828	0	144
78	8968	0	144
78	8984	0	144
79	238	0	80
79	449	0	110
79	468	0	114
79	480	0	114
79	893	0	125
79	1154	0	136
79	1284	0	136
79	1378	0	137
79	1982	0	143
79	2292	0	143
79	2302	0	143
79	2438	0	143
79	2442	0	143
79	3144	0	143
79	6136	0	144
79	6268	0	144
79	6324	0	144
79	6404	0	144
79	8688	0	144
79	9232	0	144
80	247	0	81
80	270	0	94
80	276	0	95
80	280	0	97
80	456	0	112
80	813	0	123
80	887	0	125
80	2010	0	143
80	2990	0	143
80	3116	0	143
80	4360	0	144
80	6020	0	144
80	6032	0	144
80	8672	0	144
81	248	0	82
81	268	0	93
81	474	0	114
81	479	0	114
81	821	0	123
81	981	0	135
81	2874	0	143
81	3076	0	143
81	3132	0	143
81	4848	0	144
81	7560	0	144
82	251	0	83
82	263	0	91
82	275	0	95
82	472	0	114
82	481	0	114
82	502	0	117
82	818	0	123
82	826	0	123
82	831	0	124
82	878	0	125
82	965	0	134
82	986	0	135
82	1156	0	136
82	1304	0	137
82	2436	0	143
82	2532	0	143
82	2568	0	143
82	2770	0	143
82	3012	0	143
82	3092	0	143
82	3136	0	143
82	4856	0	144
82	4900	0	144
82	6084	0	144
82	7624	0	144
83	252	0	84
83	255	0	86
83	259	0	88
83	475	0	114
83	828	0	124
83	876	0	125
83	1310	0	137
83	2212	0	143
83	2572	0	143
83	2578	0	143
83	2758	0	143
83	3088	0	143
83	4804	0	144
83	6068	0	144
83	6120	0	144
83	8872	0	144
84	253	0	85
84	258	0	88
84	265	0	91
84	484	0	115
84	495	0	117
84	497	0	117
84	504	0	117
84	814	0	123
84	873	0	125
84	884	0	125
84	963	0	134
84	1300	0	137
84	1308	0	137
84	2762	0	143
84	4368	0	144
84	4776	0	144
84	5792	0	144
84	6100	0	144
84	6400	0	144
84	8888	0	144
85	254	0	86
85	463	0	113
85	952	0	134
85	958	0	134
85	966	0	134
85	1158	0	136
85	3056	0	143
85	4832	0	144
85	4888	0	144
85	6396	0	144
85	7600	0	144
85	7616	0	144
85	8880	0	144
86	256	0	87
86	264	0	91
86	274	0	95
86	461	0	113
86	477	0	114
86	832	0	124
86	975	0	135
86	982	0	135
86	985	0	135
86	6116	0	144
86	7536	0	144
86	7648	0	144
87	257	0	88
87	272	0	94
87	871	0	125
87	874	0	125
87	880	0	125
87	890	0	125
87	951	0	134
87	961	0	134
87	972	0	135
87	1162	0	136
87	1306	0	137
87	2020	0	143
87	2214	0	143
87	2576	0	143
87	2582	0	143
87	2878	0	143
87	3020	0	143
87	3048	0	143
87	4372	0	144
87	5804	0	144
87	7576	0	144
88	260	0	89
88	460	0	113
88	490	0	115
88	825	0	123
88	877	0	125
88	950	0	134
88	953	0	134
88	957	0	134
88	2574	0	143
88	4828	0	144
88	6048	0	144
89	261	0	90
89	464	0	113
89	967	0	134
89	1160	0	136
89	1292	0	137
89	1296	0	137
89	2216	0	143
89	3028	0	143
89	3044	0	143
89	4868	0	144
89	6108	0	144
90	262	0	91
90	462	0	113
90	466	0	114
90	491	0	115
90	498	0	117
90	501	0	117
90	964	0	134
90	2580	0	143
90	3024	0	143
90	4792	0	144
90	4812	0	144
90	6112	0	144
90	7608	0	144
91	266	0	92
91	471	0	114
91	816	0	123
91	949	0	134
91	984	0	135
91	2218	0	143
91	2760	0	143
91	2766	0	143
91	3032	0	143
91	3104	0	143
91	3128	0	143
91	4864	0	144
91	4880	0	144
91	6124	0	144
91	7544	0	144
91	7568	0	144
92	267	0	93
92	367	0	105
92	452	0	111
92	486	0	115
92	496	0	117
92	815	0	123
92	2014	0	143
92	2208	0	143
92	2440	0	143
92	2588	0	143
92	3064	0	143
92	5812	0	144
92	6080	0	144
92	6388	0	144
92	9152	0	144
92	9168	0	144
93	269	0	94
93	457	0	112
93	478	0	114
93	485	0	115
93	955	0	134
93	973	0	135
93	1166	0	136
93	2296	0	143
93	2992	0	143
93	3108	0	143
93	3120	0	143
93	4364	0	144
93	4764	0	144
93	4836	0	144
93	6392	0	144
93	7656	0	144
93	9160	0	144
94	273	0	95
94	476	0	114
94	824	0	123
94	968	0	134
94	970	0	135
94	4796	0	144
94	4808	0	144
94	4816	0	144
94	4824	0	144
94	4872	0	144
94	4884	0	144
94	7592	0	144
95	277	0	96
95	279	0	97
95	281	0	97
95	327	0	103
95	394	0	110
95	577	0	119
95	710	0	123
95	1376	0	137
95	1796	0	141
95	3512	0	144
95	5724	0	144
95	6016	0	144
95	6320	0	144
95	8784	0	144
96	278	0	97
96	393	0	110
96	1976	0	143
96	2988	0	143
96	2996	0	143
96	4768	0	144
96	4840	0	144
96	6024	0	144
97	288	0	98
97	547	0	119
97	551	0	119
97	560	0	119
97	586	0	119
97	689	0	119
97	720	0	123
97	989	0	135
97	1028	0	136
97	1088	0	136
97	1096	0	136
97	1132	0	136
97	1266	0	136
97	1336	0	137
97	1360	0	137
97	1396	0	137
97	1542	0	141
97	1640	0	141
97	1732	0	141
97	1874	0	143
97	1992	0	143
97	2140	0	143
97	2162	0	143
97	2648	0	143
97	2674	0	143
97	2720	0	143
97	2854	0	143
97	3396	0	144
97	3432	0	144
97	3488	0	144
97	4448	0	144
97	4464	0	144
97	6420	0	144
97	6448	0	144
97	8656	0	144
98	301	0	99
98	603	0	119
98	783	0	123
98	1564	0	141
98	1854	0	143
98	2700	0	143
98	3364	0	144
98	3956	0	144
98	5272	0	144
98	5944	0	144
98	6476	0	144
98	6840	0	144
98	6944	0	144
98	7712	0	144
99	302	0	100
99	371	0	105
99	668	0	119
99	773	0	123
99	858	0	124
99	932	0	134
99	1048	0	136
99	1270	0	136
99	1438	0	137
99	1594	0	141
99	1616	0	141
99	1952	0	143
99	2124	0	143
99	2406	0	143
99	2964	0	143
99	3960	0	144
99	4172	0	144
99	5024	0	144
99	5388	0	144
99	5628	0	144
99	5688	0	144
99	5916	0	144
99	6352	0	144
99	7368	0	144
99	8056	0	144
99	9048	0	144
100	305	0	101
100	527	0	118
100	605	0	119
100	617	0	119
100	619	0	119
100	643	0	119
100	669	0	119
100	696	0	119
100	779	0	123
100	781	0	123
100	845	0	124
100	933	0	134
100	1836	0	143
100	2454	0	143
100	2518	0	143
100	2704	0	143
100	3220	0	144
100	3460	0	144
100	3468	0	144
100	3632	0	144
100	5028	0	144
100	5044	0	144
100	5168	0	144
100	6480	0	144
100	6496	0	144
100	6908	0	144
101	308	0	102
101	310	0	102
101	351	0	105
101	602	0	119
101	604	0	119
101	789	0	123
101	791	0	123
101	936	0	134
101	938	0	134
101	1662	0	141
101	2398	0	143
101	3584	0	144
101	5196	0	144
101	5212	0	144
101	5268	0	144
101	5284	0	144
101	5844	0	144
101	8992	0	144
102	324	0	103
102	707	0	122
102	805	0	123
102	1456	0	137
102	2234	0	143
102	2240	0	143
102	2820	0	143
102	2850	0	143
102	3740	0	144
102	3876	0	144
102	4080	0	144
102	4124	0	144
102	4960	0	144
102	5596	0	144
102	6804	0	144
102	6812	0	144
102	6984	0	144
103	328	0	104
103	711	0	123
103	2816	0	143
103	3884	0	144
103	6012	0	144
104	348	0	105
104	356	0	105
104	659	0	119
104	775	0	123
104	800	0	123
104	897	0	125
104	1604	0	141
104	1652	0	141
104	1842	0	143
104	2378	0	143
104	2382	0	143
104	3840	0	144
104	4340	0	144
104	6484	0	144
105	381	0	106
105	1806	0	141
105	4976	0	144
106	382	0	107
106	4980	0	144
107	383	0	108
107	702	0	122
107	1812	0	141
107	1816	0	142
107	3796	0	144
108	384	0	109
108	703	0	122
108	806	0	123
108	2408	0	143
108	2896	0	143
108	3780	0	144
108	3808	0	144
108	4972	0	144
108	5004	0	144
108	5408	0	144
109	392	0	110
109	451	0	111
109	881	0	125
109	888	0	125
109	978	0	135
109	1382	0	137
109	1972	0	143
109	2018	0	143
109	2434	0	143
109	2774	0	143
109	2986	0	143
109	2998	0	143
109	6088	0	144
109	6132	0	144
110	450	0	111
110	488	0	115
110	507	0	117
110	872	0	125
110	977	0	135
110	2284	0	143
110	2776	0	143
110	3008	0	143
110	5808	0	144
110	8680	0	144
111	453	0	112
111	455	0	112
111	467	0	114
111	483	0	115
111	500	0	117
111	2012	0	143
111	2286	0	143
111	2300	0	143
111	4772	0	144
111	9144	0	144
112	459	0	113
112	489	0	115
112	823	0	123
112	829	0	124
112	879	0	125
112	956	0	134
112	974	0	135
112	983	0	135
112	1298	0	137
112	1312	0	137
112	2210	0	143
112	2876	0	143
112	3052	0	143
112	4892	0	144
112	6076	0	144
113	465	0	114
113	499	0	117
113	1290	0	137
113	1294	0	137
114	482	0	115
114	817	0	123
114	820	0	123
114	948	0	134
114	980	0	135
114	1302	0	137
114	1974	0	143
114	2204	0	143
114	2566	0	143
114	2584	0	143
114	2768	0	143
114	3112	0	143
114	3124	0	143
114	3140	0	143
114	4844	0	144
114	4852	0	144
114	6028	0	144
114	6096	0	144
114	7520	0	144
114	7552	0	144
114	7664	0	144
115	493	0	116
115	833	0	124
115	868	0	125
115	875	0	125
115	959	0	134
115	1316	0	137
115	2206	0	143
115	2570	0	143
115	3060	0	143
115	4780	0	144
115	6044	0	144
115	6052	0	144
115	6064	0	144
115	9216	0	144
116	494	0	117
116	891	0	125
116	954	0	134
116	971	0	135
116	976	0	135
116	3040	0	143
116	4800	0	144
116	4876	0	144
116	6104	0	144
116	7584	0	144
117	524	0	118
117	608	0	119
117	732	0	123
117	798	0	123
117	993	0	135
117	1192	0	136
117	1234	0	136
117	1436	0	137
117	1448	0	137
117	1596	0	141
117	1736	0	141
117	1752	0	141
117	1934	0	143
117	2102	0	143
117	2416	0	143
117	2422	0	143
117	2450	0	143
117	2592	0	143
117	2724	0	143
117	2736	0	143
117	2868	0	143
117	3160	0	144
117	3384	0	144
117	3484	0	144
117	3524	0	144
117	3704	0	144
117	3820	0	144
117	3928	0	144
117	4164	0	144
117	4228	0	144
117	4424	0	144
117	4592	0	144
117	4692	0	144
117	5132	0	144
117	5160	0	144
117	5228	0	144
117	5308	0	144
117	5536	0	144
117	5580	0	144
117	5872	0	144
117	5884	0	144
117	5920	0	144
117	6512	0	144
117	7856	0	144
117	8472	0	144
117	9104	0	144
118	529	0	119
118	899	0	125
118	1840	0	143
118	6924	0	144
118	6932	0	144
118	9000	0	144
119	697	0	120
119	700	0	122
119	1526	0	141
119	1804	0	141
119	1822	0	143
119	1826	0	143
119	1834	0	143
119	2898	0	143
119	3784	0	144
119	4992	0	144
120	698	0	121
120	701	0	122
120	1820	0	143
120	3792	0	144
120	4988	0	144
120	4996	0	144
121	699	0	122
121	1808	0	141
121	1830	0	143
121	3776	0	144
121	5000	0	144
122	709	0	123
122	740	0	123
122	1798	0	141
122	3516	0	144
122	5436	0	144
122	5604	0	144
122	7288	0	144
122	8776	0	144
123	827	0	124
123	830	0	124
123	869	0	125
123	987	0	135
123	2022	0	143
123	3100	0	143
123	5800	0	144
124	867	0	125
124	1314	0	137
124	2220	0	143
124	2534	0	143
124	3080	0	143
124	6060	0	144
124	6072	0	144
124	7632	0	144
125	900	0	126
125	902	0	127
125	904	0	127
125	906	0	127
125	908	0	128
125	921	0	133
126	901	0	127
126	903	0	127
126	905	0	127
126	913	0	132
126	920	0	133
126	2464	0	143
126	2468	0	143
126	2474	0	143
127	907	0	128
128	909	0	129
128	922	0	133
128	926	0	133
128	2470	0	143
129	910	0	130
129	918	0	133
129	923	0	133
130	911	0	131
130	916	0	133
130	919	0	133
130	1552	0	141
130	2462	0	143
130	2466	0	143
130	2472	0	143
130	2476	0	143
130	2480	0	143
130	2490	0	143
131	912	0	132
131	914	0	132
131	925	0	133
131	928	0	133
131	2478	0	143
132	915	0	133
132	917	0	133
132	924	0	133
132	927	0	133
132	929	0	133
132	1550	0	141
132	1554	0	141
132	2482	0	143
133	930	0	134
133	1548	0	141
133	1556	0	141
133	2460	0	143
133	2484	0	143
133	2488	0	143
133	2492	0	143
133	6524	0	144
134	969	0	135
134	4820	0	144
135	1020	0	136
135	1050	0	136
135	1600	0	141
135	1682	0	141
135	2262	0	143
135	2400	0	143
135	3864	0	144
136	1288	0	137
136	2994	0	143
137	1814	0	142
137	1824	0	143
137	3788	0	144
137	4984	0	144
138	1818	0	143
138	1828	0	143
138	1832	0	143
139	2016	0	143

