version 3
run General-37-20250917-22:37:06-66005
attr configname General
attr datetime 20250917-22:37:06
attr datetimef 20250917-223706
attr experiment General
attr inifile omnetpp.ini
attr iterationvars ""
attr iterationvarsd ""
attr iterationvarsf ""
attr measurement ""
attr network RGG
attr processid 66005
attr repetition 37
attr replication #37
attr resultdir results
attr runnumber 37
attr seedset 37
config network RGG
config seed-set 37
config num-rngs 1
config sim-time-limit 10s
config repeat 500
config **.node[*].xCor "uniform(0.0, 1.0, 0)"
config **.node[*].yCor "uniform(0.0, 1.0, 0)"
config *.numWalkers 1
config *.numNodes 100
config *.enableDuplication true
config *.rc 0.25

par RGG.node[0].port$o[0].channel typename "\"ned.IdealChannel\""
par RGG.node[35].port$o[0].channel typename "\"ned.IdealChannel\""
par RGG.node[0].port$o[1].channel typename "\"ned.IdealChannel\""
par RGG.node[52].port$o[0].channel typename "\"ned.IdealChannel\""
par RGG.node[0].port$o[2].channel typename "\"ned.IdealChannel\""
par RGG.node[56].port$o[0].channel typename "\"ned.IdealChannel\""
par RGG.node[0].port$o[3].channel typename "\"ned.IdealChannel\""
par RGG.node[63].port$o[0].channel typename "\"ned.IdealChannel\""
par RGG.node[0].port$o[4].channel typename "\"ned.IdealChannel\""
par RGG.node[71].port$o[0].channel typename "\"ned.IdealChannel\""
par RGG.node[0].port$o[5].channel typename "\"ned.IdealChannel\""
par RGG.node[76].port$o[0].channel typename "\"ned.IdealChannel\""
par RGG.node[0].port$o[6].channel typename "\"ned.IdealChannel\""
par RGG.node[80].port$o[0].channel typename "\"ned.IdealChannel\""
par RGG.node[0].port$o[7].channel typename "\"ned.IdealChannel\""
par RGG.node[86].port$o[0].channel typename "\"ned.IdealChannel\""
par RGG.node[1].port$o[0].channel typename "\"ned.IdealChannel\""
par RGG.node[3].port$o[0].channel typename "\"ned.IdealChannel\""
par RGG.node[1].port$o[1].channel typename "\"ned.IdealChannel\""
par RGG.node[11].port$o[0].channel typename "\"ned.IdealChannel\""
par RGG.node[1].port$o[2].channel typename "\"ned.IdealChannel\""
par RGG.node[23].port$o[0].channel typename "\"ned.IdealChannel\""
par RGG.node[1].port$o[3].channel typename "\"ned.IdealChannel\""
par RGG.node[26].port$o[0].channel typename "\"ned.IdealChannel\""
par RGG.node[1].port$o[4].channel typename "\"ned.IdealChannel\""
par RGG.node[27].port$o[0].channel typename "\"ned.IdealChannel\""
par RGG.node[1].port$o[5].channel typename "\"ned.IdealChannel\""
par RGG.node[32].port$o[0].channel typename "\"ned.IdealChannel\""
par RGG.node[1].port$o[6].channel typename "\"ned.IdealChannel\""
par RGG.node[33].port$o[0].channel typename "\"ned.IdealChannel\""
par RGG.node[1].port$o[7].channel typename "\"ned.IdealChannel\""
par RGG.node[47].port$o[0].channel typename "\"ned.IdealChannel\""
par RGG.node[1].port$o[8].channel typename "\"ned.IdealChannel\""
par RGG.node[51].port$o[0].channel typename "\"ned.IdealChannel\""
par RGG.node[1].port$o[9].channel typename "\"ned.IdealChannel\""
par RGG.node[57].port$o[0].channel typename "\"ned.IdealChannel\""
par RGG.node[1].port$o[10].channel typename "\"ned.IdealChannel\""
par RGG.node[58].port$o[0].channel typename "\"ned.IdealChannel\""
par RGG.node[1].port$o[11].channel typename "\"ned.IdealChannel\""
par RGG.node[59].port$o[0].channel typename "\"ned.IdealChannel\""
par RGG.node[1].port$o[12].channel typename "\"ned.IdealChannel\""
par RGG.node[60].port$o[0].channel typename "\"ned.IdealChannel\""
par RGG.node[1].port$o[13].channel typename "\"ned.IdealChannel\""
par RGG.node[66].port$o[0].channel typename "\"ned.IdealChannel\""
par RGG.node[1].port$o[14].channel typename "\"ned.IdealChannel\""
par RGG.node[69].port$o[0].channel typename "\"ned.IdealChannel\""
par RGG.node[1].port$o[15].channel typename "\"ned.IdealChannel\""
par RGG.node[75].port$o[0].channel typename "\"ned.IdealChannel\""
par RGG.node[1].port$o[16].channel typename "\"ned.IdealChannel\""
par RGG.node[79].port$o[0].channel typename "\"ned.IdealChannel\""
par RGG.node[1].port$o[17].channel typename "\"ned.IdealChannel\""
par RGG.node[84].port$o[0].channel typename "\"ned.IdealChannel\""
par RGG.node[1].port$o[18].channel typename "\"ned.IdealChannel\""
par RGG.node[89].port$o[0].channel typename "\"ned.IdealChannel\""
par RGG.node[1].port$o[19].channel typename "\"ned.IdealChannel\""
par RGG.node[93].port$o[0].channel typename "\"ned.IdealChannel\""
par RGG.node[1].port$o[20].channel typename "\"ned.IdealChannel\""
par RGG.node[94].port$o[0].channel typename "\"ned.IdealChannel\""
par RGG.node[1].port$o[21].channel typename "\"ned.IdealChannel\""
par RGG.node[98].port$o[0].channel typename "\"ned.IdealChannel\""
par RGG.node[2].port$o[0].channel typename "\"ned.IdealChannel\""
par RGG.node[6].port$o[0].channel typename "\"ned.IdealChannel\""
par RGG.node[2].port$o[1].channel typename "\"ned.IdealChannel\""
par RGG.node[21].port$o[0].channel typename "\"ned.IdealChannel\""
par RGG.node[2].port$o[2].channel typename "\"ned.IdealChannel\""
par RGG.node[23].port$o[1].channel typename "\"ned.IdealChannel\""
par RGG.node[2].port$o[3].channel typename "\"ned.IdealChannel\""
par RGG.node[26].port$o[1].channel typename "\"ned.IdealChannel\""
par RGG.node[2].port$o[4].channel typename "\"ned.IdealChannel\""
par RGG.node[28].port$o[0].channel typename "\"ned.IdealChannel\""
par RGG.node[2].port$o[5].channel typename "\"ned.IdealChannel\""
par RGG.node[31].port$o[0].channel typename "\"ned.IdealChannel\""
par RGG.node[2].port$o[6].channel typename "\"ned.IdealChannel\""
par RGG.node[32].port$o[1].channel typename "\"ned.IdealChannel\""
par RGG.node[2].port$o[7].channel typename "\"ned.IdealChannel\""
par RGG.node[39].port$o[0].channel typename "\"ned.IdealChannel\""
par RGG.node[2].port$o[8].channel typename "\"ned.IdealChannel\""
par RGG.node[42].port$o[0].channel typename "\"ned.IdealChannel\""
par RGG.node[2].port$o[9].channel typename "\"ned.IdealChannel\""
par RGG.node[64].port$o[0].channel typename "\"ned.IdealChannel\""
par RGG.node[2].port$o[10].channel typename "\"ned.IdealChannel\""
par RGG.node[77].port$o[0].channel typename "\"ned.IdealChannel\""
par RGG.node[2].port$o[11].channel typename "\"ned.IdealChannel\""
par RGG.node[83].port$o[0].channel typename "\"ned.IdealChannel\""
par RGG.node[2].port$o[12].channel typename "\"ned.IdealChannel\""
par RGG.node[92].port$o[0].channel typename "\"ned.IdealChannel\""
par RGG.node[2].port$o[13].channel typename "\"ned.IdealChannel\""
par RGG.node[98].port$o[1].channel typename "\"ned.IdealChannel\""
par RGG.node[2].port$o[14].channel typename "\"ned.IdealChannel\""
par RGG.node[99].port$o[0].channel typename "\"ned.IdealChannel\""
par RGG.node[3].port$o[1].channel typename "\"ned.IdealChannel\""
par RGG.node[9].port$o[0].channel typename "\"ned.IdealChannel\""
par RGG.node[3].port$o[2].channel typename "\"ned.IdealChannel\""
par RGG.node[16].port$o[0].channel typename "\"ned.IdealChannel\""
par RGG.node[3].port$o[3].channel typename "\"ned.IdealChannel\""
par RGG.node[24].port$o[0].channel typename "\"ned.IdealChannel\""
par RGG.node[3].port$o[4].channel typename "\"ned.IdealChannel\""
par RGG.node[33].port$o[1].channel typename "\"ned.IdealChannel\""
par RGG.node[3].port$o[5].channel typename "\"ned.IdealChannel\""
par RGG.node[35].port$o[1].channel typename "\"ned.IdealChannel\""
par RGG.node[3].port$o[6].channel typename "\"ned.IdealChannel\""
par RGG.node[36].port$o[0].channel typename "\"ned.IdealChannel\""
par RGG.node[3].port$o[7].channel typename "\"ned.IdealChannel\""
par RGG.node[50].port$o[0].channel typename "\"ned.IdealChannel\""
par RGG.node[3].port$o[8].channel typename "\"ned.IdealChannel\""
par RGG.node[55].port$o[0].channel typename "\"ned.IdealChannel\""
par RGG.node[3].port$o[9].channel typename "\"ned.IdealChannel\""
par RGG.node[57].port$o[1].channel typename "\"ned.IdealChannel\""
par RGG.node[3].port$o[10].channel typename "\"ned.IdealChannel\""
par RGG.node[61].port$o[0].channel typename "\"ned.IdealChannel\""
par RGG.node[3].port$o[11].channel typename "\"ned.IdealChannel\""
par RGG.node[62].port$o[0].channel typename "\"ned.IdealChannel\""
par RGG.node[3].port$o[12].channel typename "\"ned.IdealChannel\""
par RGG.node[74].port$o[0].channel typename "\"ned.IdealChannel\""
par RGG.node[3].port$o[13].channel typename "\"ned.IdealChannel\""
par RGG.node[75].port$o[1].channel typename "\"ned.IdealChannel\""
par RGG.node[3].port$o[14].channel typename "\"ned.IdealChannel\""
par RGG.node[78].port$o[0].channel typename "\"ned.IdealChannel\""
par RGG.node[3].port$o[15].channel typename "\"ned.IdealChannel\""
par RGG.node[80].port$o[1].channel typename "\"ned.IdealChannel\""
par RGG.node[3].port$o[16].channel typename "\"ned.IdealChannel\""
par RGG.node[81].port$o[0].channel typename "\"ned.IdealChannel\""
par RGG.node[3].port$o[17].channel typename "\"ned.IdealChannel\""
par RGG.node[84].port$o[1].channel typename "\"ned.IdealChannel\""
par RGG.node[3].port$o[18].channel typename "\"ned.IdealChannel\""
par RGG.node[90].port$o[0].channel typename "\"ned.IdealChannel\""
par RGG.node[3].port$o[19].channel typename "\"ned.IdealChannel\""
par RGG.node[93].port$o[1].channel typename "\"ned.IdealChannel\""
par RGG.node[4].port$o[0].channel typename "\"ned.IdealChannel\""
par RGG.node[17].port$o[0].channel typename "\"ned.IdealChannel\""
par RGG.node[4].port$o[1].channel typename "\"ned.IdealChannel\""
par RGG.node[18].port$o[0].channel typename "\"ned.IdealChannel\""
par RGG.node[4].port$o[2].channel typename "\"ned.IdealChannel\""
par RGG.node[38].port$o[0].channel typename "\"ned.IdealChannel\""
par RGG.node[4].port$o[3].channel typename "\"ned.IdealChannel\""
par RGG.node[39].port$o[1].channel typename "\"ned.IdealChannel\""
par RGG.node[4].port$o[4].channel typename "\"ned.IdealChannel\""
par RGG.node[43].port$o[0].channel typename "\"ned.IdealChannel\""
par RGG.node[4].port$o[5].channel typename "\"ned.IdealChannel\""
par RGG.node[46].port$o[0].channel typename "\"ned.IdealChannel\""
par RGG.node[4].port$o[6].channel typename "\"ned.IdealChannel\""
par RGG.node[48].port$o[0].channel typename "\"ned.IdealChannel\""
par RGG.node[4].port$o[7].channel typename "\"ned.IdealChannel\""
par RGG.node[59].port$o[1].channel typename "\"ned.IdealChannel\""
par RGG.node[4].port$o[8].channel typename "\"ned.IdealChannel\""
par RGG.node[65].port$o[0].channel typename "\"ned.IdealChannel\""
par RGG.node[4].port$o[9].channel typename "\"ned.IdealChannel\""
par RGG.node[69].port$o[1].channel typename "\"ned.IdealChannel\""
par RGG.node[4].port$o[10].channel typename "\"ned.IdealChannel\""
par RGG.node[96].port$o[0].channel typename "\"ned.IdealChannel\""
par RGG.node[4].port$o[11].channel typename "\"ned.IdealChannel\""
par RGG.node[97].port$o[0].channel typename "\"ned.IdealChannel\""
par RGG.node[5].port$o[0].channel typename "\"ned.IdealChannel\""
par RGG.node[9].port$o[1].channel typename "\"ned.IdealChannel\""
par RGG.node[5].port$o[1].channel typename "\"ned.IdealChannel\""
par RGG.node[12].port$o[0].channel typename "\"ned.IdealChannel\""
par RGG.node[5].port$o[2].channel typename "\"ned.IdealChannel\""
par RGG.node[16].port$o[1].channel typename "\"ned.IdealChannel\""
par RGG.node[5].port$o[3].channel typename "\"ned.IdealChannel\""
par RGG.node[36].port$o[1].channel typename "\"ned.IdealChannel\""
par RGG.node[5].port$o[4].channel typename "\"ned.IdealChannel\""
par RGG.node[41].port$o[0].channel typename "\"ned.IdealChannel\""
par RGG.node[5].port$o[5].channel typename "\"ned.IdealChannel\""
par RGG.node[50].port$o[1].channel typename "\"ned.IdealChannel\""
par RGG.node[5].port$o[6].channel typename "\"ned.IdealChannel\""
par RGG.node[55].port$o[1].channel typename "\"ned.IdealChannel\""
par RGG.node[5].port$o[7].channel typename "\"ned.IdealChannel\""
par RGG.node[62].port$o[1].channel typename "\"ned.IdealChannel\""
par RGG.node[5].port$o[8].channel typename "\"ned.IdealChannel\""
par RGG.node[63].port$o[1].channel typename "\"ned.IdealChannel\""
par RGG.node[5].port$o[9].channel typename "\"ned.IdealChannel\""
par RGG.node[74].port$o[1].channel typename "\"ned.IdealChannel\""
par RGG.node[5].port$o[10].channel typename "\"ned.IdealChannel\""
par RGG.node[80].port$o[2].channel typename "\"ned.IdealChannel\""
par RGG.node[5].port$o[11].channel typename "\"ned.IdealChannel\""
par RGG.node[86].port$o[1].channel typename "\"ned.IdealChannel\""
par RGG.node[5].port$o[12].channel typename "\"ned.IdealChannel\""
par RGG.node[90].port$o[1].channel typename "\"ned.IdealChannel\""
par RGG.node[6].port$o[1].channel typename "\"ned.IdealChannel\""
par RGG.node[15].port$o[0].channel typename "\"ned.IdealChannel\""
par RGG.node[6].port$o[2].channel typename "\"ned.IdealChannel\""
par RGG.node[21].port$o[1].channel typename "\"ned.IdealChannel\""
par RGG.node[6].port$o[3].channel typename "\"ned.IdealChannel\""
par RGG.node[26].port$o[2].channel typename "\"ned.IdealChannel\""
par RGG.node[6].port$o[4].channel typename "\"ned.IdealChannel\""
par RGG.node[28].port$o[1].channel typename "\"ned.IdealChannel\""
par RGG.node[6].port$o[5].channel typename "\"ned.IdealChannel\""
par RGG.node[31].port$o[1].channel typename "\"ned.IdealChannel\""
par RGG.node[6].port$o[6].channel typename "\"ned.IdealChannel\""
par RGG.node[34].port$o[0].channel typename "\"ned.IdealChannel\""
par RGG.node[6].port$o[7].channel typename "\"ned.IdealChannel\""
par RGG.node[68].port$o[0].channel typename "\"ned.IdealChannel\""
par RGG.node[6].port$o[8].channel typename "\"ned.IdealChannel\""
par RGG.node[77].port$o[1].channel typename "\"ned.IdealChannel\""
par RGG.node[6].port$o[9].channel typename "\"ned.IdealChannel\""
par RGG.node[83].port$o[1].channel typename "\"ned.IdealChannel\""
par RGG.node[6].port$o[10].channel typename "\"ned.IdealChannel\""
par RGG.node[89].port$o[1].channel typename "\"ned.IdealChannel\""
par RGG.node[6].port$o[11].channel typename "\"ned.IdealChannel\""
par RGG.node[92].port$o[1].channel typename "\"ned.IdealChannel\""
par RGG.node[7].port$o[0].channel typename "\"ned.IdealChannel\""
par RGG.node[10].port$o[0].channel typename "\"ned.IdealChannel\""
par RGG.node[7].port$o[1].channel typename "\"ned.IdealChannel\""
par RGG.node[11].port$o[1].channel typename "\"ned.IdealChannel\""
par RGG.node[7].port$o[2].channel typename "\"ned.IdealChannel\""
par RGG.node[13].port$o[0].channel typename "\"ned.IdealChannel\""
par RGG.node[7].port$o[3].channel typename "\"ned.IdealChannel\""
par RGG.node[14].port$o[0].channel typename "\"ned.IdealChannel\""
par RGG.node[7].port$o[4].channel typename "\"ned.IdealChannel\""
par RGG.node[18].port$o[1].channel typename "\"ned.IdealChannel\""
par RGG.node[7].port$o[5].channel typename "\"ned.IdealChannel\""
par RGG.node[25].port$o[0].channel typename "\"ned.IdealChannel\""
par RGG.node[7].port$o[6].channel typename "\"ned.IdealChannel\""
par RGG.node[29].port$o[0].channel typename "\"ned.IdealChannel\""
par RGG.node[7].port$o[7].channel typename "\"ned.IdealChannel\""
par RGG.node[30].port$o[0].channel typename "\"ned.IdealChannel\""
par RGG.node[7].port$o[8].channel typename "\"ned.IdealChannel\""
par RGG.node[43].port$o[1].channel typename "\"ned.IdealChannel\""
par RGG.node[7].port$o[9].channel typename "\"ned.IdealChannel\""
par RGG.node[45].port$o[0].channel typename "\"ned.IdealChannel\""
par RGG.node[7].port$o[10].channel typename "\"ned.IdealChannel\""
par RGG.node[48].port$o[1].channel typename "\"ned.IdealChannel\""
par RGG.node[7].port$o[11].channel typename "\"ned.IdealChannel\""
par RGG.node[54].port$o[0].channel typename "\"ned.IdealChannel\""
par RGG.node[7].port$o[12].channel typename "\"ned.IdealChannel\""
par RGG.node[57].port$o[2].channel typename "\"ned.IdealChannel\""
par RGG.node[7].port$o[13].channel typename "\"ned.IdealChannel\""
par RGG.node[61].port$o[1].channel typename "\"ned.IdealChannel\""
par RGG.node[7].port$o[14].channel typename "\"ned.IdealChannel\""
par RGG.node[65].port$o[1].channel typename "\"ned.IdealChannel\""
par RGG.node[7].port$o[15].channel typename "\"ned.IdealChannel\""
par RGG.node[69].port$o[2].channel typename "\"ned.IdealChannel\""
par RGG.node[7].port$o[16].channel typename "\"ned.IdealChannel\""
par RGG.node[72].port$o[0].channel typename "\"ned.IdealChannel\""
par RGG.node[7].port$o[17].channel typename "\"ned.IdealChannel\""
par RGG.node[93].port$o[2].channel typename "\"ned.IdealChannel\""
par RGG.node[8].port$o[0].channel typename "\"ned.IdealChannel\""
par RGG.node[12].port$o[1].channel typename "\"ned.IdealChannel\""
par RGG.node[8].port$o[1].channel typename "\"ned.IdealChannel\""
par RGG.node[22].port$o[0].channel typename "\"ned.IdealChannel\""
par RGG.node[8].port$o[2].channel typename "\"ned.IdealChannel\""
par RGG.node[41].port$o[1].channel typename "\"ned.IdealChannel\""
par RGG.node[8].port$o[3].channel typename "\"ned.IdealChannel\""
par RGG.node[58].port$o[1].channel typename "\"ned.IdealChannel\""
par RGG.node[8].port$o[4].channel typename "\"ned.IdealChannel\""
par RGG.node[67].port$o[0].channel typename "\"ned.IdealChannel\""
par RGG.node[8].port$o[5].channel typename "\"ned.IdealChannel\""
par RGG.node[81].port$o[1].channel typename "\"ned.IdealChannel\""
par RGG.node[8].port$o[6].channel typename "\"ned.IdealChannel\""
par RGG.node[82].port$o[0].channel typename "\"ned.IdealChannel\""
par RGG.node[8].port$o[7].channel typename "\"ned.IdealChannel\""
par RGG.node[87].port$o[0].channel typename "\"ned.IdealChannel\""
par RGG.node[8].port$o[8].channel typename "\"ned.IdealChannel\""
par RGG.node[88].port$o[0].channel typename "\"ned.IdealChannel\""
par RGG.node[8].port$o[9].channel typename "\"ned.IdealChannel\""
par RGG.node[91].port$o[0].channel typename "\"ned.IdealChannel\""
par RGG.node[8].port$o[10].channel typename "\"ned.IdealChannel\""
par RGG.node[94].port$o[1].channel typename "\"ned.IdealChannel\""
par RGG.node[8].port$o[11].channel typename "\"ned.IdealChannel\""
par RGG.node[95].port$o[0].channel typename "\"ned.IdealChannel\""
par RGG.node[9].port$o[2].channel typename "\"ned.IdealChannel\""
par RGG.node[24].port$o[1].channel typename "\"ned.IdealChannel\""
par RGG.node[9].port$o[3].channel typename "\"ned.IdealChannel\""
par RGG.node[29].port$o[1].channel typename "\"ned.IdealChannel\""
par RGG.node[9].port$o[4].channel typename "\"ned.IdealChannel\""
par RGG.node[33].port$o[2].channel typename "\"ned.IdealChannel\""
par RGG.node[9].port$o[5].channel typename "\"ned.IdealChannel\""
par RGG.node[35].port$o[2].channel typename "\"ned.IdealChannel\""
par RGG.node[9].port$o[6].channel typename "\"ned.IdealChannel\""
par RGG.node[36].port$o[2].channel typename "\"ned.IdealChannel\""
par RGG.node[9].port$o[7].channel typename "\"ned.IdealChannel\""
par RGG.node[50].port$o[2].channel typename "\"ned.IdealChannel\""
par RGG.node[9].port$o[8].channel typename "\"ned.IdealChannel\""
par RGG.node[52].port$o[1].channel typename "\"ned.IdealChannel\""
par RGG.node[9].port$o[9].channel typename "\"ned.IdealChannel\""
par RGG.node[55].port$o[2].channel typename "\"ned.IdealChannel\""
par RGG.node[9].port$o[10].channel typename "\"ned.IdealChannel\""
par RGG.node[56].port$o[1].channel typename "\"ned.IdealChannel\""
par RGG.node[9].port$o[11].channel typename "\"ned.IdealChannel\""
par RGG.node[61].port$o[2].channel typename "\"ned.IdealChannel\""
par RGG.node[9].port$o[12].channel typename "\"ned.IdealChannel\""
par RGG.node[62].port$o[2].channel typename "\"ned.IdealChannel\""
par RGG.node[9].port$o[13].channel typename "\"ned.IdealChannel\""
par RGG.node[70].port$o[0].channel typename "\"ned.IdealChannel\""
par RGG.node[9].port$o[14].channel typename "\"ned.IdealChannel\""
par RGG.node[72].port$o[1].channel typename "\"ned.IdealChannel\""
par RGG.node[9].port$o[15].channel typename "\"ned.IdealChannel\""
par RGG.node[73].port$o[0].channel typename "\"ned.IdealChannel\""
par RGG.node[9].port$o[16].channel typename "\"ned.IdealChannel\""
par RGG.node[74].port$o[2].channel typename "\"ned.IdealChannel\""
par RGG.node[9].port$o[17].channel typename "\"ned.IdealChannel\""
par RGG.node[78].port$o[1].channel typename "\"ned.IdealChannel\""
par RGG.node[9].port$o[18].channel typename "\"ned.IdealChannel\""
par RGG.node[80].port$o[3].channel typename "\"ned.IdealChannel\""
par RGG.node[9].port$o[19].channel typename "\"ned.IdealChannel\""
par RGG.node[86].port$o[2].channel typename "\"ned.IdealChannel\""
par RGG.node[9].port$o[20].channel typename "\"ned.IdealChannel\""
par RGG.node[90].port$o[2].channel typename "\"ned.IdealChannel\""
par RGG.node[10].port$o[1].channel typename "\"ned.IdealChannel\""
par RGG.node[11].port$o[2].channel typename "\"ned.IdealChannel\""
par RGG.node[10].port$o[2].channel typename "\"ned.IdealChannel\""
par RGG.node[13].port$o[1].channel typename "\"ned.IdealChannel\""
par RGG.node[10].port$o[3].channel typename "\"ned.IdealChannel\""
par RGG.node[14].port$o[1].channel typename "\"ned.IdealChannel\""
par RGG.node[10].port$o[4].channel typename "\"ned.IdealChannel\""
par RGG.node[18].port$o[2].channel typename "\"ned.IdealChannel\""
par RGG.node[10].port$o[5].channel typename "\"ned.IdealChannel\""
par RGG.node[24].port$o[2].channel typename "\"ned.IdealChannel\""
par RGG.node[10].port$o[6].channel typename "\"ned.IdealChannel\""
par RGG.node[25].port$o[1].channel typename "\"ned.IdealChannel\""
par RGG.node[10].port$o[7].channel typename "\"ned.IdealChannel\""
par RGG.node[29].port$o[2].channel typename "\"ned.IdealChannel\""
par RGG.node[10].port$o[8].channel typename "\"ned.IdealChannel\""
par RGG.node[30].port$o[1].channel typename "\"ned.IdealChannel\""
par RGG.node[10].port$o[9].channel typename "\"ned.IdealChannel\""
par RGG.node[35].port$o[3].channel typename "\"ned.IdealChannel\""
par RGG.node[10].port$o[10].channel typename "\"ned.IdealChannel\""
par RGG.node[45].port$o[1].channel typename "\"ned.IdealChannel\""
par RGG.node[10].port$o[11].channel typename "\"ned.IdealChannel\""
par RGG.node[48].port$o[2].channel typename "\"ned.IdealChannel\""
par RGG.node[10].port$o[12].channel typename "\"ned.IdealChannel\""
par RGG.node[54].port$o[1].channel typename "\"ned.IdealChannel\""
par RGG.node[10].port$o[13].channel typename "\"ned.IdealChannel\""
par RGG.node[57].port$o[3].channel typename "\"ned.IdealChannel\""
par RGG.node[10].port$o[14].channel typename "\"ned.IdealChannel\""
par RGG.node[61].port$o[3].channel typename "\"ned.IdealChannel\""
par RGG.node[10].port$o[15].channel typename "\"ned.IdealChannel\""
par RGG.node[65].port$o[2].channel typename "\"ned.IdealChannel\""
par RGG.node[10].port$o[16].channel typename "\"ned.IdealChannel\""
par RGG.node[69].port$o[3].channel typename "\"ned.IdealChannel\""
par RGG.node[10].port$o[17].channel typename "\"ned.IdealChannel\""
par RGG.node[70].port$o[1].channel typename "\"ned.IdealChannel\""
par RGG.node[10].port$o[18].channel typename "\"ned.IdealChannel\""
par RGG.node[72].port$o[2].channel typename "\"ned.IdealChannel\""
par RGG.node[10].port$o[19].channel typename "\"ned.IdealChannel\""
par RGG.node[73].port$o[1].channel typename "\"ned.IdealChannel\""
par RGG.node[10].port$o[20].channel typename "\"ned.IdealChannel\""
par RGG.node[85].port$o[0].channel typename "\"ned.IdealChannel\""
par RGG.node[11].port$o[3].channel typename "\"ned.IdealChannel\""
par RGG.node[18].port$o[3].channel typename "\"ned.IdealChannel\""
par RGG.node[11].port$o[4].channel typename "\"ned.IdealChannel\""
par RGG.node[27].port$o[1].channel typename "\"ned.IdealChannel\""
par RGG.node[11].port$o[5].channel typename "\"ned.IdealChannel\""
par RGG.node[30].port$o[2].channel typename "\"ned.IdealChannel\""
par RGG.node[11].port$o[6].channel typename "\"ned.IdealChannel\""
par RGG.node[33].port$o[3].channel typename "\"ned.IdealChannel\""
par RGG.node[11].port$o[7].channel typename "\"ned.IdealChannel\""
par RGG.node[43].port$o[2].channel typename "\"ned.IdealChannel\""
par RGG.node[11].port$o[8].channel typename "\"ned.IdealChannel\""
par RGG.node[45].port$o[2].channel typename "\"ned.IdealChannel\""
par RGG.node[11].port$o[9].channel typename "\"ned.IdealChannel\""
par RGG.node[47].port$o[1].channel typename "\"ned.IdealChannel\""
par RGG.node[11].port$o[10].channel typename "\"ned.IdealChannel\""
par RGG.node[48].port$o[3].channel typename "\"ned.IdealChannel\""
par RGG.node[11].port$o[11].channel typename "\"ned.IdealChannel\""
par RGG.node[51].port$o[1].channel typename "\"ned.IdealChannel\""
par RGG.node[11].port$o[12].channel typename "\"ned.IdealChannel\""
par RGG.node[57].port$o[4].channel typename "\"ned.IdealChannel\""
par RGG.node[11].port$o[13].channel typename "\"ned.IdealChannel\""
par RGG.node[59].port$o[2].channel typename "\"ned.IdealChannel\""
par RGG.node[11].port$o[14].channel typename "\"ned.IdealChannel\""
par RGG.node[60].port$o[1].channel typename "\"ned.IdealChannel\""
par RGG.node[11].port$o[15].channel typename "\"ned.IdealChannel\""
par RGG.node[61].port$o[4].channel typename "\"ned.IdealChannel\""
par RGG.node[11].port$o[16].channel typename "\"ned.IdealChannel\""
par RGG.node[65].port$o[3].channel typename "\"ned.IdealChannel\""
par RGG.node[11].port$o[17].channel typename "\"ned.IdealChannel\""
par RGG.node[66].port$o[1].channel typename "\"ned.IdealChannel\""
par RGG.node[11].port$o[18].channel typename "\"ned.IdealChannel\""
par RGG.node[69].port$o[4].channel typename "\"ned.IdealChannel\""
par RGG.node[11].port$o[19].channel typename "\"ned.IdealChannel\""
par RGG.node[75].port$o[2].channel typename "\"ned.IdealChannel\""
par RGG.node[11].port$o[20].channel typename "\"ned.IdealChannel\""
par RGG.node[78].port$o[2].channel typename "\"ned.IdealChannel\""
par RGG.node[11].port$o[21].channel typename "\"ned.IdealChannel\""
par RGG.node[79].port$o[1].channel typename "\"ned.IdealChannel\""
par RGG.node[11].port$o[22].channel typename "\"ned.IdealChannel\""
par RGG.node[93].port$o[3].channel typename "\"ned.IdealChannel\""
par RGG.node[12].port$o[2].channel typename "\"ned.IdealChannel\""
par RGG.node[16].port$o[2].channel typename "\"ned.IdealChannel\""
par RGG.node[12].port$o[3].channel typename "\"ned.IdealChannel\""
par RGG.node[41].port$o[2].channel typename "\"ned.IdealChannel\""
par RGG.node[12].port$o[4].channel typename "\"ned.IdealChannel\""
par RGG.node[50].port$o[3].channel typename "\"ned.IdealChannel\""
par RGG.node[12].port$o[5].channel typename "\"ned.IdealChannel\""
par RGG.node[87].port$o[1].channel typename "\"ned.IdealChannel\""
par RGG.node[12].port$o[6].channel typename "\"ned.IdealChannel\""
par RGG.node[95].port$o[1].channel typename "\"ned.IdealChannel\""
par RGG.node[13].port$o[2].channel typename "\"ned.IdealChannel\""
par RGG.node[14].port$o[2].channel typename "\"ned.IdealChannel\""
par RGG.node[13].port$o[3].channel typename "\"ned.IdealChannel\""
par RGG.node[19].port$o[0].channel typename "\"ned.IdealChannel\""
par RGG.node[13].port$o[4].channel typename "\"ned.IdealChannel\""
par RGG.node[25].port$o[2].channel typename "\"ned.IdealChannel\""
par RGG.node[13].port$o[5].channel typename "\"ned.IdealChannel\""
par RGG.node[29].port$o[3].channel typename "\"ned.IdealChannel\""
par RGG.node[13].port$o[6].channel typename "\"ned.IdealChannel\""
par RGG.node[30].port$o[3].channel typename "\"ned.IdealChannel\""
par RGG.node[13].port$o[7].channel typename "\"ned.IdealChannel\""
par RGG.node[44].port$o[0].channel typename "\"ned.IdealChannel\""
par RGG.node[13].port$o[8].channel typename "\"ned.IdealChannel\""
par RGG.node[45].port$o[3].channel typename "\"ned.IdealChannel\""
par RGG.node[13].port$o[9].channel typename "\"ned.IdealChannel\""
par RGG.node[54].port$o[2].channel typename "\"ned.IdealChannel\""
par RGG.node[13].port$o[10].channel typename "\"ned.IdealChannel\""
par RGG.node[70].port$o[2].channel typename "\"ned.IdealChannel\""
par RGG.node[13].port$o[11].channel typename "\"ned.IdealChannel\""
par RGG.node[72].port$o[3].channel typename "\"ned.IdealChannel\""
par RGG.node[13].port$o[12].channel typename "\"ned.IdealChannel\""
par RGG.node[73].port$o[2].channel typename "\"ned.IdealChannel\""
par RGG.node[13].port$o[13].channel typename "\"ned.IdealChannel\""
par RGG.node[85].port$o[1].channel typename "\"ned.IdealChannel\""
par RGG.node[14].port$o[3].channel typename "\"ned.IdealChannel\""
par RGG.node[18].port$o[4].channel typename "\"ned.IdealChannel\""
par RGG.node[14].port$o[4].channel typename "\"ned.IdealChannel\""
par RGG.node[19].port$o[1].channel typename "\"ned.IdealChannel\""
par RGG.node[14].port$o[5].channel typename "\"ned.IdealChannel\""
par RGG.node[25].port$o[3].channel typename "\"ned.IdealChannel\""
par RGG.node[14].port$o[6].channel typename "\"ned.IdealChannel\""
par RGG.node[29].port$o[4].channel typename "\"ned.IdealChannel\""
par RGG.node[14].port$o[7].channel typename "\"ned.IdealChannel\""
par RGG.node[30].port$o[4].channel typename "\"ned.IdealChannel\""
par RGG.node[14].port$o[8].channel typename "\"ned.IdealChannel\""
par RGG.node[38].port$o[1].channel typename "\"ned.IdealChannel\""
par RGG.node[14].port$o[9].channel typename "\"ned.IdealChannel\""
par RGG.node[44].port$o[1].channel typename "\"ned.IdealChannel\""
par RGG.node[14].port$o[10].channel typename "\"ned.IdealChannel\""
par RGG.node[45].port$o[4].channel typename "\"ned.IdealChannel\""
par RGG.node[14].port$o[11].channel typename "\"ned.IdealChannel\""
par RGG.node[48].port$o[4].channel typename "\"ned.IdealChannel\""
par RGG.node[14].port$o[12].channel typename "\"ned.IdealChannel\""
par RGG.node[53].port$o[0].channel typename "\"ned.IdealChannel\""
par RGG.node[14].port$o[13].channel typename "\"ned.IdealChannel\""
par RGG.node[54].port$o[3].channel typename "\"ned.IdealChannel\""
par RGG.node[14].port$o[14].channel typename "\"ned.IdealChannel\""
par RGG.node[65].port$o[4].channel typename "\"ned.IdealChannel\""
par RGG.node[15].port$o[1].channel typename "\"ned.IdealChannel\""
par RGG.node[20].port$o[0].channel typename "\"ned.IdealChannel\""
par RGG.node[15].port$o[2].channel typename "\"ned.IdealChannel\""
par RGG.node[22].port$o[1].channel typename "\"ned.IdealChannel\""
par RGG.node[15].port$o[3].channel typename "\"ned.IdealChannel\""
par RGG.node[26].port$o[3].channel typename "\"ned.IdealChannel\""
par RGG.node[15].port$o[4].channel typename "\"ned.IdealChannel\""
par RGG.node[31].port$o[2].channel typename "\"ned.IdealChannel\""
par RGG.node[15].port$o[5].channel typename "\"ned.IdealChannel\""
par RGG.node[34].port$o[1].channel typename "\"ned.IdealChannel\""
par RGG.node[15].port$o[6].channel typename "\"ned.IdealChannel\""
par RGG.node[58].port$o[2].channel typename "\"ned.IdealChannel\""
par RGG.node[15].port$o[7].channel typename "\"ned.IdealChannel\""
par RGG.node[66].port$o[2].channel typename "\"ned.IdealChannel\""
par RGG.node[15].port$o[8].channel typename "\"ned.IdealChannel\""
par RGG.node[67].port$o[1].channel typename "\"ned.IdealChannel\""
par RGG.node[15].port$o[9].channel typename "\"ned.IdealChannel\""
par RGG.node[68].port$o[1].channel typename "\"ned.IdealChannel\""
par RGG.node[15].port$o[10].channel typename "\"ned.IdealChannel\""
par RGG.node[75].port$o[3].channel typename "\"ned.IdealChannel\""
par RGG.node[15].port$o[11].channel typename "\"ned.IdealChannel\""
par RGG.node[77].port$o[2].channel typename "\"ned.IdealChannel\""
par RGG.node[15].port$o[12].channel typename "\"ned.IdealChannel\""
par RGG.node[82].port$o[1].channel typename "\"ned.IdealChannel\""
par RGG.node[15].port$o[13].channel typename "\"ned.IdealChannel\""
par RGG.node[84].port$o[2].channel typename "\"ned.IdealChannel\""
par RGG.node[15].port$o[14].channel typename "\"ned.IdealChannel\""
par RGG.node[89].port$o[2].channel typename "\"ned.IdealChannel\""
par RGG.node[15].port$o[15].channel typename "\"ned.IdealChannel\""
par RGG.node[94].port$o[2].channel typename "\"ned.IdealChannel\""
par RGG.node[16].port$o[3].channel typename "\"ned.IdealChannel\""
par RGG.node[36].port$o[3].channel typename "\"ned.IdealChannel\""
par RGG.node[16].port$o[4].channel typename "\"ned.IdealChannel\""
par RGG.node[41].port$o[3].channel typename "\"ned.IdealChannel\""
par RGG.node[16].port$o[5].channel typename "\"ned.IdealChannel\""
par RGG.node[50].port$o[4].channel typename "\"ned.IdealChannel\""
par RGG.node[16].port$o[6].channel typename "\"ned.IdealChannel\""
par RGG.node[55].port$o[3].channel typename "\"ned.IdealChannel\""
par RGG.node[16].port$o[7].channel typename "\"ned.IdealChannel\""
par RGG.node[62].port$o[3].channel typename "\"ned.IdealChannel\""
par RGG.node[16].port$o[8].channel typename "\"ned.IdealChannel\""
par RGG.node[74].port$o[3].channel typename "\"ned.IdealChannel\""
par RGG.node[16].port$o[9].channel typename "\"ned.IdealChannel\""
par RGG.node[80].port$o[4].channel typename "\"ned.IdealChannel\""
par RGG.node[16].port$o[10].channel typename "\"ned.IdealChannel\""
par RGG.node[81].port$o[2].channel typename "\"ned.IdealChannel\""
par RGG.node[16].port$o[11].channel typename "\"ned.IdealChannel\""
par RGG.node[86].port$o[3].channel typename "\"ned.IdealChannel\""
par RGG.node[16].port$o[12].channel typename "\"ned.IdealChannel\""
par RGG.node[90].port$o[3].channel typename "\"ned.IdealChannel\""
par RGG.node[16].port$o[13].channel typename "\"ned.IdealChannel\""
par RGG.node[95].port$o[2].channel typename "\"ned.IdealChannel\""
par RGG.node[17].port$o[1].channel typename "\"ned.IdealChannel\""
par RGG.node[38].port$o[2].channel typename "\"ned.IdealChannel\""
par RGG.node[17].port$o[2].channel typename "\"ned.IdealChannel\""
par RGG.node[39].port$o[2].channel typename "\"ned.IdealChannel\""
par RGG.node[17].port$o[3].channel typename "\"ned.IdealChannel\""
par RGG.node[42].port$o[1].channel typename "\"ned.IdealChannel\""
par RGG.node[17].port$o[4].channel typename "\"ned.IdealChannel\""
par RGG.node[43].port$o[3].channel typename "\"ned.IdealChannel\""
par RGG.node[17].port$o[5].channel typename "\"ned.IdealChannel\""
par RGG.node[46].port$o[1].channel typename "\"ned.IdealChannel\""
par RGG.node[17].port$o[6].channel typename "\"ned.IdealChannel\""
par RGG.node[59].port$o[3].channel typename "\"ned.IdealChannel\""
par RGG.node[17].port$o[7].channel typename "\"ned.IdealChannel\""
par RGG.node[64].port$o[1].channel typename "\"ned.IdealChannel\""
par RGG.node[17].port$o[8].channel typename "\"ned.IdealChannel\""
par RGG.node[96].port$o[1].channel typename "\"ned.IdealChannel\""
par RGG.node[17].port$o[9].channel typename "\"ned.IdealChannel\""
par RGG.node[97].port$o[1].channel typename "\"ned.IdealChannel\""
par RGG.node[17].port$o[10].channel typename "\"ned.IdealChannel\""
par RGG.node[99].port$o[1].channel typename "\"ned.IdealChannel\""
par RGG.node[18].port$o[5].channel typename "\"ned.IdealChannel\""
par RGG.node[30].port$o[5].channel typename "\"ned.IdealChannel\""
par RGG.node[18].port$o[6].channel typename "\"ned.IdealChannel\""
par RGG.node[43].port$o[4].channel typename "\"ned.IdealChannel\""
par RGG.node[18].port$o[7].channel typename "\"ned.IdealChannel\""
par RGG.node[45].port$o[5].channel typename "\"ned.IdealChannel\""
par RGG.node[18].port$o[8].channel typename "\"ned.IdealChannel\""
par RGG.node[48].port$o[5].channel typename "\"ned.IdealChannel\""
par RGG.node[18].port$o[9].channel typename "\"ned.IdealChannel\""
par RGG.node[57].port$o[5].channel typename "\"ned.IdealChannel\""
par RGG.node[18].port$o[10].channel typename "\"ned.IdealChannel\""
par RGG.node[59].port$o[4].channel typename "\"ned.IdealChannel\""
par RGG.node[18].port$o[11].channel typename "\"ned.IdealChannel\""
par RGG.node[61].port$o[5].channel typename "\"ned.IdealChannel\""
par RGG.node[18].port$o[12].channel typename "\"ned.IdealChannel\""
par RGG.node[65].port$o[5].channel typename "\"ned.IdealChannel\""
par RGG.node[18].port$o[13].channel typename "\"ned.IdealChannel\""
par RGG.node[69].port$o[5].channel typename "\"ned.IdealChannel\""
par RGG.node[18].port$o[14].channel typename "\"ned.IdealChannel\""
par RGG.node[93].port$o[4].channel typename "\"ned.IdealChannel\""
par RGG.node[19].port$o[2].channel typename "\"ned.IdealChannel\""
par RGG.node[25].port$o[4].channel typename "\"ned.IdealChannel\""
par RGG.node[19].port$o[3].channel typename "\"ned.IdealChannel\""
par RGG.node[38].port$o[3].channel typename "\"ned.IdealChannel\""
par RGG.node[19].port$o[4].channel typename "\"ned.IdealChannel\""
par RGG.node[44].port$o[2].channel typename "\"ned.IdealChannel\""
par RGG.node[19].port$o[5].channel typename "\"ned.IdealChannel\""
par RGG.node[45].port$o[6].channel typename "\"ned.IdealChannel\""
par RGG.node[19].port$o[6].channel typename "\"ned.IdealChannel\""
par RGG.node[46].port$o[2].channel typename "\"ned.IdealChannel\""
par RGG.node[19].port$o[7].channel typename "\"ned.IdealChannel\""
par RGG.node[53].port$o[1].channel typename "\"ned.IdealChannel\""
par RGG.node[19].port$o[8].channel typename "\"ned.IdealChannel\""
par RGG.node[54].port$o[4].channel typename "\"ned.IdealChannel\""
par RGG.node[20].port$o[1].channel typename "\"ned.IdealChannel\""
par RGG.node[22].port$o[2].channel typename "\"ned.IdealChannel\""
par RGG.node[20].port$o[2].channel typename "\"ned.IdealChannel\""
par RGG.node[37].port$o[0].channel typename "\"ned.IdealChannel\""
par RGG.node[20].port$o[3].channel typename "\"ned.IdealChannel\""
par RGG.node[40].port$o[0].channel typename "\"ned.IdealChannel\""
par RGG.node[20].port$o[4].channel typename "\"ned.IdealChannel\""
par RGG.node[49].port$o[0].channel typename "\"ned.IdealChannel\""
par RGG.node[20].port$o[5].channel typename "\"ned.IdealChannel\""
par RGG.node[67].port$o[2].channel typename "\"ned.IdealChannel\""
par RGG.node[20].port$o[6].channel typename "\"ned.IdealChannel\""
par RGG.node[88].port$o[1].channel typename "\"ned.IdealChannel\""
par RGG.node[20].port$o[7].channel typename "\"ned.IdealChannel\""
par RGG.node[91].port$o[1].channel typename "\"ned.IdealChannel\""
par RGG.node[21].port$o[2].channel typename "\"ned.IdealChannel\""
par RGG.node[28].port$o[2].channel typename "\"ned.IdealChannel\""
par RGG.node[21].port$o[3].channel typename "\"ned.IdealChannel\""
par RGG.node[42].port$o[2].channel typename "\"ned.IdealChannel\""
par RGG.node[21].port$o[4].channel typename "\"ned.IdealChannel\""
par RGG.node[64].port$o[2].channel typename "\"ned.IdealChannel\""
par RGG.node[21].port$o[5].channel typename "\"ned.IdealChannel\""
par RGG.node[83].port$o[2].channel typename "\"ned.IdealChannel\""
par RGG.node[21].port$o[6].channel typename "\"ned.IdealChannel\""
par RGG.node[92].port$o[2].channel typename "\"ned.IdealChannel\""
par RGG.node[21].port$o[7].channel typename "\"ned.IdealChannel\""
par RGG.node[99].port$o[2].channel typename "\"ned.IdealChannel\""
par RGG.node[22].port$o[3].channel typename "\"ned.IdealChannel\""
par RGG.node[37].port$o[1].channel typename "\"ned.IdealChannel\""
par RGG.node[22].port$o[4].channel typename "\"ned.IdealChannel\""
par RGG.node[40].port$o[1].channel typename "\"ned.IdealChannel\""
par RGG.node[22].port$o[5].channel typename "\"ned.IdealChannel\""
par RGG.node[49].port$o[1].channel typename "\"ned.IdealChannel\""
par RGG.node[22].port$o[6].channel typename "\"ned.IdealChannel\""
par RGG.node[67].port$o[3].channel typename "\"ned.IdealChannel\""
par RGG.node[22].port$o[7].channel typename "\"ned.IdealChannel\""
par RGG.node[82].port$o[2].channel typename "\"ned.IdealChannel\""
par RGG.node[22].port$o[8].channel typename "\"ned.IdealChannel\""
par RGG.node[87].port$o[2].channel typename "\"ned.IdealChannel\""
par RGG.node[22].port$o[9].channel typename "\"ned.IdealChannel\""
par RGG.node[88].port$o[2].channel typename "\"ned.IdealChannel\""
par RGG.node[22].port$o[10].channel typename "\"ned.IdealChannel\""
par RGG.node[91].port$o[2].channel typename "\"ned.IdealChannel\""
par RGG.node[22].port$o[11].channel typename "\"ned.IdealChannel\""
par RGG.node[94].port$o[3].channel typename "\"ned.IdealChannel\""
par RGG.node[23].port$o[2].channel typename "\"ned.IdealChannel\""
par RGG.node[26].port$o[4].channel typename "\"ned.IdealChannel\""
par RGG.node[23].port$o[3].channel typename "\"ned.IdealChannel\""
par RGG.node[27].port$o[2].channel typename "\"ned.IdealChannel\""
par RGG.node[23].port$o[4].channel typename "\"ned.IdealChannel\""
par RGG.node[28].port$o[3].channel typename "\"ned.IdealChannel\""
par RGG.node[23].port$o[5].channel typename "\"ned.IdealChannel\""
par RGG.node[31].port$o[3].channel typename "\"ned.IdealChannel\""
par RGG.node[23].port$o[6].channel typename "\"ned.IdealChannel\""
par RGG.node[32].port$o[2].channel typename "\"ned.IdealChannel\""
par RGG.node[23].port$o[7].channel typename "\"ned.IdealChannel\""
par RGG.node[39].port$o[3].channel typename "\"ned.IdealChannel\""
par RGG.node[23].port$o[8].channel typename "\"ned.IdealChannel\""
par RGG.node[42].port$o[3].channel typename "\"ned.IdealChannel\""
par RGG.node[23].port$o[9].channel typename "\"ned.IdealChannel\""
par RGG.node[43].port$o[5].channel typename "\"ned.IdealChannel\""
par RGG.node[23].port$o[10].channel typename "\"ned.IdealChannel\""
par RGG.node[47].port$o[2].channel typename "\"ned.IdealChannel\""
par RGG.node[23].port$o[11].channel typename "\"ned.IdealChannel\""
par RGG.node[51].port$o[2].channel typename "\"ned.IdealChannel\""
par RGG.node[23].port$o[12].channel typename "\"ned.IdealChannel\""
par RGG.node[59].port$o[5].channel typename "\"ned.IdealChannel\""
par RGG.node[23].port$o[13].channel typename "\"ned.IdealChannel\""
par RGG.node[60].port$o[2].channel typename "\"ned.IdealChannel\""
par RGG.node[23].port$o[14].channel typename "\"ned.IdealChannel\""
par RGG.node[64].port$o[3].channel typename "\"ned.IdealChannel\""
par RGG.node[23].port$o[15].channel typename "\"ned.IdealChannel\""
par RGG.node[66].port$o[3].channel typename "\"ned.IdealChannel\""
par RGG.node[23].port$o[16].channel typename "\"ned.IdealChannel\""
par RGG.node[69].port$o[6].channel typename "\"ned.IdealChannel\""
par RGG.node[23].port$o[17].channel typename "\"ned.IdealChannel\""
par RGG.node[79].port$o[2].channel typename "\"ned.IdealChannel\""
par RGG.node[23].port$o[18].channel typename "\"ned.IdealChannel\""
par RGG.node[83].port$o[3].channel typename "\"ned.IdealChannel\""
par RGG.node[23].port$o[19].channel typename "\"ned.IdealChannel\""
par RGG.node[98].port$o[2].channel typename "\"ned.IdealChannel\""
par RGG.node[23].port$o[20].channel typename "\"ned.IdealChannel\""
par RGG.node[99].port$o[3].channel typename "\"ned.IdealChannel\""
par RGG.node[24].port$o[3].channel typename "\"ned.IdealChannel\""
par RGG.node[29].port$o[5].channel typename "\"ned.IdealChannel\""
par RGG.node[24].port$o[4].channel typename "\"ned.IdealChannel\""
par RGG.node[30].port$o[6].channel typename "\"ned.IdealChannel\""
par RGG.node[24].port$o[5].channel typename "\"ned.IdealChannel\""
par RGG.node[33].port$o[4].channel typename "\"ned.IdealChannel\""
par RGG.node[24].port$o[6].channel typename "\"ned.IdealChannel\""
par RGG.node[35].port$o[4].channel typename "\"ned.IdealChannel\""
par RGG.node[24].port$o[7].channel typename "\"ned.IdealChannel\""
par RGG.node[36].port$o[4].channel typename "\"ned.IdealChannel\""
par RGG.node[24].port$o[8].channel typename "\"ned.IdealChannel\""
par RGG.node[45].port$o[7].channel typename "\"ned.IdealChannel\""
par RGG.node[24].port$o[9].channel typename "\"ned.IdealChannel\""
par RGG.node[52].port$o[2].channel typename "\"ned.IdealChannel\""
par RGG.node[24].port$o[10].channel typename "\"ned.IdealChannel\""
par RGG.node[55].port$o[4].channel typename "\"ned.IdealChannel\""
par RGG.node[24].port$o[11].channel typename "\"ned.IdealChannel\""
par RGG.node[56].port$o[2].channel typename "\"ned.IdealChannel\""
par RGG.node[24].port$o[12].channel typename "\"ned.IdealChannel\""
par RGG.node[61].port$o[6].channel typename "\"ned.IdealChannel\""
par RGG.node[24].port$o[13].channel typename "\"ned.IdealChannel\""
par RGG.node[62].port$o[4].channel typename "\"ned.IdealChannel\""
par RGG.node[24].port$o[14].channel typename "\"ned.IdealChannel\""
par RGG.node[70].port$o[3].channel typename "\"ned.IdealChannel\""
par RGG.node[24].port$o[15].channel typename "\"ned.IdealChannel\""
par RGG.node[72].port$o[4].channel typename "\"ned.IdealChannel\""
par RGG.node[24].port$o[16].channel typename "\"ned.IdealChannel\""
par RGG.node[73].port$o[3].channel typename "\"ned.IdealChannel\""
par RGG.node[24].port$o[17].channel typename "\"ned.IdealChannel\""
par RGG.node[74].port$o[4].channel typename "\"ned.IdealChannel\""
par RGG.node[24].port$o[18].channel typename "\"ned.IdealChannel\""
par RGG.node[78].port$o[3].channel typename "\"ned.IdealChannel\""
par RGG.node[24].port$o[19].channel typename "\"ned.IdealChannel\""
par RGG.node[80].port$o[5].channel typename "\"ned.IdealChannel\""
par RGG.node[24].port$o[20].channel typename "\"ned.IdealChannel\""
par RGG.node[85].port$o[2].channel typename "\"ned.IdealChannel\""
par RGG.node[25].port$o[5].channel typename "\"ned.IdealChannel\""
par RGG.node[29].port$o[6].channel typename "\"ned.IdealChannel\""
par RGG.node[25].port$o[6].channel typename "\"ned.IdealChannel\""
par RGG.node[30].port$o[7].channel typename "\"ned.IdealChannel\""
par RGG.node[25].port$o[7].channel typename "\"ned.IdealChannel\""
par RGG.node[45].port$o[8].channel typename "\"ned.IdealChannel\""
par RGG.node[25].port$o[8].channel typename "\"ned.IdealChannel\""
par RGG.node[54].port$o[5].channel typename "\"ned.IdealChannel\""
par RGG.node[25].port$o[9].channel typename "\"ned.IdealChannel\""
par RGG.node[70].port$o[4].channel typename "\"ned.IdealChannel\""
par RGG.node[25].port$o[10].channel typename "\"ned.IdealChannel\""
par RGG.node[72].port$o[5].channel typename "\"ned.IdealChannel\""
par RGG.node[25].port$o[11].channel typename "\"ned.IdealChannel\""
par RGG.node[73].port$o[4].channel typename "\"ned.IdealChannel\""
par RGG.node[25].port$o[12].channel typename "\"ned.IdealChannel\""
par RGG.node[85].port$o[3].channel typename "\"ned.IdealChannel\""
par RGG.node[26].port$o[5].channel typename "\"ned.IdealChannel\""
par RGG.node[27].port$o[3].channel typename "\"ned.IdealChannel\""
par RGG.node[26].port$o[6].channel typename "\"ned.IdealChannel\""
par RGG.node[28].port$o[4].channel typename "\"ned.IdealChannel\""
par RGG.node[26].port$o[7].channel typename "\"ned.IdealChannel\""
par RGG.node[31].port$o[4].channel typename "\"ned.IdealChannel\""
par RGG.node[26].port$o[8].channel typename "\"ned.IdealChannel\""
par RGG.node[32].port$o[3].channel typename "\"ned.IdealChannel\""
par RGG.node[26].port$o[9].channel typename "\"ned.IdealChannel\""
par RGG.node[39].port$o[4].channel typename "\"ned.IdealChannel\""
par RGG.node[26].port$o[10].channel typename "\"ned.IdealChannel\""
par RGG.node[47].port$o[3].channel typename "\"ned.IdealChannel\""
par RGG.node[26].port$o[11].channel typename "\"ned.IdealChannel\""
par RGG.node[51].port$o[3].channel typename "\"ned.IdealChannel\""
par RGG.node[26].port$o[12].channel typename "\"ned.IdealChannel\""
par RGG.node[59].port$o[6].channel typename "\"ned.IdealChannel\""
par RGG.node[26].port$o[13].channel typename "\"ned.IdealChannel\""
par RGG.node[60].port$o[3].channel typename "\"ned.IdealChannel\""
par RGG.node[26].port$o[14].channel typename "\"ned.IdealChannel\""
par RGG.node[66].port$o[4].channel typename "\"ned.IdealChannel\""
par RGG.node[26].port$o[15].channel typename "\"ned.IdealChannel\""
par RGG.node[75].port$o[4].channel typename "\"ned.IdealChannel\""
par RGG.node[26].port$o[16].channel typename "\"ned.IdealChannel\""
par RGG.node[79].port$o[3].channel typename "\"ned.IdealChannel\""
par RGG.node[26].port$o[17].channel typename "\"ned.IdealChannel\""
par RGG.node[84].port$o[3].channel typename "\"ned.IdealChannel\""
par RGG.node[26].port$o[18].channel typename "\"ned.IdealChannel\""
par RGG.node[89].port$o[3].channel typename "\"ned.IdealChannel\""
par RGG.node[26].port$o[19].channel typename "\"ned.IdealChannel\""
par RGG.node[93].port$o[5].channel typename "\"ned.IdealChannel\""
par RGG.node[26].port$o[20].channel typename "\"ned.IdealChannel\""
par RGG.node[98].port$o[3].channel typename "\"ned.IdealChannel\""
par RGG.node[27].port$o[4].channel typename "\"ned.IdealChannel\""
par RGG.node[32].port$o[4].channel typename "\"ned.IdealChannel\""
par RGG.node[27].port$o[5].channel typename "\"ned.IdealChannel\""
par RGG.node[33].port$o[5].channel typename "\"ned.IdealChannel\""
par RGG.node[27].port$o[6].channel typename "\"ned.IdealChannel\""
par RGG.node[43].port$o[6].channel typename "\"ned.IdealChannel\""
par RGG.node[27].port$o[7].channel typename "\"ned.IdealChannel\""
par RGG.node[47].port$o[4].channel typename "\"ned.IdealChannel\""
par RGG.node[27].port$o[8].channel typename "\"ned.IdealChannel\""
par RGG.node[51].port$o[4].channel typename "\"ned.IdealChannel\""
par RGG.node[27].port$o[9].channel typename "\"ned.IdealChannel\""
par RGG.node[57].port$o[6].channel typename "\"ned.IdealChannel\""
par RGG.node[27].port$o[10].channel typename "\"ned.IdealChannel\""
par RGG.node[59].port$o[7].channel typename "\"ned.IdealChannel\""
par RGG.node[27].port$o[11].channel typename "\"ned.IdealChannel\""
par RGG.node[60].port$o[4].channel typename "\"ned.IdealChannel\""
par RGG.node[27].port$o[12].channel typename "\"ned.IdealChannel\""
par RGG.node[65].port$o[6].channel typename "\"ned.IdealChannel\""
par RGG.node[27].port$o[13].channel typename "\"ned.IdealChannel\""
par RGG.node[66].port$o[5].channel typename "\"ned.IdealChannel\""
par RGG.node[27].port$o[14].channel typename "\"ned.IdealChannel\""
par RGG.node[69].port$o[7].channel typename "\"ned.IdealChannel\""
par RGG.node[27].port$o[15].channel typename "\"ned.IdealChannel\""
par RGG.node[75].port$o[5].channel typename "\"ned.IdealChannel\""
par RGG.node[27].port$o[16].channel typename "\"ned.IdealChannel\""
par RGG.node[79].port$o[4].channel typename "\"ned.IdealChannel\""
par RGG.node[27].port$o[17].channel typename "\"ned.IdealChannel\""
par RGG.node[84].port$o[4].channel typename "\"ned.IdealChannel\""
par RGG.node[27].port$o[18].channel typename "\"ned.IdealChannel\""
par RGG.node[93].port$o[6].channel typename "\"ned.IdealChannel\""
par RGG.node[27].port$o[19].channel typename "\"ned.IdealChannel\""
par RGG.node[98].port$o[4].channel typename "\"ned.IdealChannel\""
par RGG.node[28].port$o[5].channel typename "\"ned.IdealChannel\""
par RGG.node[31].port$o[5].channel typename "\"ned.IdealChannel\""
par RGG.node[28].port$o[6].channel typename "\"ned.IdealChannel\""
par RGG.node[32].port$o[5].channel typename "\"ned.IdealChannel\""
par RGG.node[28].port$o[7].channel typename "\"ned.IdealChannel\""
par RGG.node[34].port$o[2].channel typename "\"ned.IdealChannel\""
par RGG.node[28].port$o[8].channel typename "\"ned.IdealChannel\""
par RGG.node[68].port$o[2].channel typename "\"ned.IdealChannel\""
par RGG.node[28].port$o[9].channel typename "\"ned.IdealChannel\""
par RGG.node[77].port$o[3].channel typename "\"ned.IdealChannel\""
par RGG.node[28].port$o[10].channel typename "\"ned.IdealChannel\""
par RGG.node[83].port$o[4].channel typename "\"ned.IdealChannel\""
par RGG.node[28].port$o[11].channel typename "\"ned.IdealChannel\""
par RGG.node[89].port$o[4].channel typename "\"ned.IdealChannel\""
par RGG.node[28].port$o[12].channel typename "\"ned.IdealChannel\""
par RGG.node[92].port$o[3].channel typename "\"ned.IdealChannel\""
par RGG.node[28].port$o[13].channel typename "\"ned.IdealChannel\""
par RGG.node[98].port$o[5].channel typename "\"ned.IdealChannel\""
par RGG.node[29].port$o[7].channel typename "\"ned.IdealChannel\""
par RGG.node[30].port$o[8].channel typename "\"ned.IdealChannel\""
par RGG.node[29].port$o[8].channel typename "\"ned.IdealChannel\""
par RGG.node[35].port$o[5].channel typename "\"ned.IdealChannel\""
par RGG.node[29].port$o[9].channel typename "\"ned.IdealChannel\""
par RGG.node[45].port$o[9].channel typename "\"ned.IdealChannel\""
par RGG.node[29].port$o[10].channel typename "\"ned.IdealChannel\""
par RGG.node[52].port$o[3].channel typename "\"ned.IdealChannel\""
par RGG.node[29].port$o[11].channel typename "\"ned.IdealChannel\""
par RGG.node[54].port$o[6].channel typename "\"ned.IdealChannel\""
par RGG.node[29].port$o[12].channel typename "\"ned.IdealChannel\""
par RGG.node[56].port$o[3].channel typename "\"ned.IdealChannel\""
par RGG.node[29].port$o[13].channel typename "\"ned.IdealChannel\""
par RGG.node[61].port$o[7].channel typename "\"ned.IdealChannel\""
par RGG.node[29].port$o[14].channel typename "\"ned.IdealChannel\""
par RGG.node[70].port$o[5].channel typename "\"ned.IdealChannel\""
par RGG.node[29].port$o[15].channel typename "\"ned.IdealChannel\""
par RGG.node[72].port$o[6].channel typename "\"ned.IdealChannel\""
par RGG.node[29].port$o[16].channel typename "\"ned.IdealChannel\""
par RGG.node[73].port$o[5].channel typename "\"ned.IdealChannel\""
par RGG.node[29].port$o[17].channel typename "\"ned.IdealChannel\""
par RGG.node[78].port$o[4].channel typename "\"ned.IdealChannel\""
par RGG.node[29].port$o[18].channel typename "\"ned.IdealChannel\""
par RGG.node[85].port$o[4].channel typename "\"ned.IdealChannel\""
par RGG.node[30].port$o[9].channel typename "\"ned.IdealChannel\""
par RGG.node[45].port$o[10].channel typename "\"ned.IdealChannel\""
par RGG.node[30].port$o[10].channel typename "\"ned.IdealChannel\""
par RGG.node[48].port$o[6].channel typename "\"ned.IdealChannel\""
par RGG.node[30].port$o[11].channel typename "\"ned.IdealChannel\""
par RGG.node[54].port$o[7].channel typename "\"ned.IdealChannel\""
par RGG.node[30].port$o[12].channel typename "\"ned.IdealChannel\""
par RGG.node[57].port$o[7].channel typename "\"ned.IdealChannel\""
par RGG.node[30].port$o[13].channel typename "\"ned.IdealChannel\""
par RGG.node[61].port$o[8].channel typename "\"ned.IdealChannel\""
par RGG.node[30].port$o[14].channel typename "\"ned.IdealChannel\""
par RGG.node[65].port$o[7].channel typename "\"ned.IdealChannel\""
par RGG.node[30].port$o[15].channel typename "\"ned.IdealChannel\""
par RGG.node[69].port$o[8].channel typename "\"ned.IdealChannel\""
par RGG.node[30].port$o[16].channel typename "\"ned.IdealChannel\""
par RGG.node[72].port$o[7].channel typename "\"ned.IdealChannel\""
par RGG.node[30].port$o[17].channel typename "\"ned.IdealChannel\""
par RGG.node[73].port$o[6].channel typename "\"ned.IdealChannel\""
par RGG.node[30].port$o[18].channel typename "\"ned.IdealChannel\""
par RGG.node[93].port$o[7].channel typename "\"ned.IdealChannel\""
par RGG.node[31].port$o[6].channel typename "\"ned.IdealChannel\""
par RGG.node[32].port$o[6].channel typename "\"ned.IdealChannel\""
par RGG.node[31].port$o[7].channel typename "\"ned.IdealChannel\""
par RGG.node[34].port$o[3].channel typename "\"ned.IdealChannel\""
par RGG.node[31].port$o[8].channel typename "\"ned.IdealChannel\""
par RGG.node[51].port$o[5].channel typename "\"ned.IdealChannel\""
par RGG.node[31].port$o[9].channel typename "\"ned.IdealChannel\""
par RGG.node[60].port$o[5].channel typename "\"ned.IdealChannel\""
par RGG.node[31].port$o[10].channel typename "\"ned.IdealChannel\""
par RGG.node[66].port$o[6].channel typename "\"ned.IdealChannel\""
par RGG.node[31].port$o[11].channel typename "\"ned.IdealChannel\""
par RGG.node[68].port$o[3].channel typename "\"ned.IdealChannel\""
par RGG.node[31].port$o[12].channel typename "\"ned.IdealChannel\""
par RGG.node[75].port$o[6].channel typename "\"ned.IdealChannel\""
par RGG.node[31].port$o[13].channel typename "\"ned.IdealChannel\""
par RGG.node[77].port$o[4].channel typename "\"ned.IdealChannel\""
par RGG.node[31].port$o[14].channel typename "\"ned.IdealChannel\""
par RGG.node[83].port$o[5].channel typename "\"ned.IdealChannel\""
par RGG.node[31].port$o[15].channel typename "\"ned.IdealChannel\""
par RGG.node[89].port$o[5].channel typename "\"ned.IdealChannel\""
par RGG.node[31].port$o[16].channel typename "\"ned.IdealChannel\""
par RGG.node[94].port$o[4].channel typename "\"ned.IdealChannel\""
par RGG.node[31].port$o[17].channel typename "\"ned.IdealChannel\""
par RGG.node[98].port$o[6].channel typename "\"ned.IdealChannel\""
par RGG.node[32].port$o[7].channel typename "\"ned.IdealChannel\""
par RGG.node[39].port$o[5].channel typename "\"ned.IdealChannel\""
par RGG.node[32].port$o[8].channel typename "\"ned.IdealChannel\""
par RGG.node[43].port$o[7].channel typename "\"ned.IdealChannel\""
par RGG.node[32].port$o[9].channel typename "\"ned.IdealChannel\""
par RGG.node[47].port$o[5].channel typename "\"ned.IdealChannel\""
par RGG.node[32].port$o[10].channel typename "\"ned.IdealChannel\""
par RGG.node[51].port$o[6].channel typename "\"ned.IdealChannel\""
par RGG.node[32].port$o[11].channel typename "\"ned.IdealChannel\""
par RGG.node[57].port$o[8].channel typename "\"ned.IdealChannel\""
par RGG.node[32].port$o[12].channel typename "\"ned.IdealChannel\""
par RGG.node[59].port$o[8].channel typename "\"ned.IdealChannel\""
par RGG.node[32].port$o[13].channel typename "\"ned.IdealChannel\""
par RGG.node[60].port$o[6].channel typename "\"ned.IdealChannel\""
par RGG.node[32].port$o[14].channel typename "\"ned.IdealChannel\""
par RGG.node[66].port$o[7].channel typename "\"ned.IdealChannel\""
par RGG.node[32].port$o[15].channel typename "\"ned.IdealChannel\""
par RGG.node[69].port$o[9].channel typename "\"ned.IdealChannel\""
par RGG.node[32].port$o[16].channel typename "\"ned.IdealChannel\""
par RGG.node[75].port$o[7].channel typename "\"ned.IdealChannel\""
par RGG.node[32].port$o[17].channel typename "\"ned.IdealChannel\""
par RGG.node[79].port$o[5].channel typename "\"ned.IdealChannel\""
par RGG.node[32].port$o[18].channel typename "\"ned.IdealChannel\""
par RGG.node[84].port$o[5].channel typename "\"ned.IdealChannel\""
par RGG.node[32].port$o[19].channel typename "\"ned.IdealChannel\""
par RGG.node[89].port$o[6].channel typename "\"ned.IdealChannel\""
par RGG.node[32].port$o[20].channel typename "\"ned.IdealChannel\""
par RGG.node[93].port$o[8].channel typename "\"ned.IdealChannel\""
par RGG.node[32].port$o[21].channel typename "\"ned.IdealChannel\""
par RGG.node[98].port$o[7].channel typename "\"ned.IdealChannel\""
par RGG.node[33].port$o[6].channel typename "\"ned.IdealChannel\""
par RGG.node[35].port$o[6].channel typename "\"ned.IdealChannel\""
par RGG.node[33].port$o[7].channel typename "\"ned.IdealChannel\""
par RGG.node[36].port$o[5].channel typename "\"ned.IdealChannel\""
par RGG.node[33].port$o[8].channel typename "\"ned.IdealChannel\""
par RGG.node[47].port$o[6].channel typename "\"ned.IdealChannel\""
par RGG.node[33].port$o[9].channel typename "\"ned.IdealChannel\""
par RGG.node[55].port$o[5].channel typename "\"ned.IdealChannel\""
par RGG.node[33].port$o[10].channel typename "\"ned.IdealChannel\""
par RGG.node[57].port$o[9].channel typename "\"ned.IdealChannel\""
par RGG.node[33].port$o[11].channel typename "\"ned.IdealChannel\""
par RGG.node[61].port$o[9].channel typename "\"ned.IdealChannel\""
par RGG.node[33].port$o[12].channel typename "\"ned.IdealChannel\""
par RGG.node[62].port$o[5].channel typename "\"ned.IdealChannel\""
par RGG.node[33].port$o[13].channel typename "\"ned.IdealChannel\""
par RGG.node[66].port$o[8].channel typename "\"ned.IdealChannel\""
par RGG.node[33].port$o[14].channel typename "\"ned.IdealChannel\""
par RGG.node[72].port$o[8].channel typename "\"ned.IdealChannel\""
par RGG.node[33].port$o[15].channel typename "\"ned.IdealChannel\""
par RGG.node[74].port$o[5].channel typename "\"ned.IdealChannel\""
par RGG.node[33].port$o[16].channel typename "\"ned.IdealChannel\""
par RGG.node[75].port$o[8].channel typename "\"ned.IdealChannel\""
par RGG.node[33].port$o[17].channel typename "\"ned.IdealChannel\""
par RGG.node[78].port$o[5].channel typename "\"ned.IdealChannel\""
par RGG.node[33].port$o[18].channel typename "\"ned.IdealChannel\""
par RGG.node[79].port$o[6].channel typename "\"ned.IdealChannel\""
par RGG.node[33].port$o[19].channel typename "\"ned.IdealChannel\""
par RGG.node[81].port$o[3].channel typename "\"ned.IdealChannel\""
par RGG.node[33].port$o[20].channel typename "\"ned.IdealChannel\""
par RGG.node[84].port$o[6].channel typename "\"ned.IdealChannel\""
par RGG.node[33].port$o[21].channel typename "\"ned.IdealChannel\""
par RGG.node[90].port$o[4].channel typename "\"ned.IdealChannel\""
par RGG.node[33].port$o[22].channel typename "\"ned.IdealChannel\""
par RGG.node[93].port$o[9].channel typename "\"ned.IdealChannel\""
par RGG.node[34].port$o[4].channel typename "\"ned.IdealChannel\""
par RGG.node[68].port$o[4].channel typename "\"ned.IdealChannel\""
par RGG.node[34].port$o[5].channel typename "\"ned.IdealChannel\""
par RGG.node[77].port$o[5].channel typename "\"ned.IdealChannel\""
par RGG.node[34].port$o[6].channel typename "\"ned.IdealChannel\""
par RGG.node[89].port$o[7].channel typename "\"ned.IdealChannel\""
par RGG.node[35].port$o[7].channel typename "\"ned.IdealChannel\""
par RGG.node[36].port$o[6].channel typename "\"ned.IdealChannel\""
par RGG.node[35].port$o[8].channel typename "\"ned.IdealChannel\""
par RGG.node[45].port$o[11].channel typename "\"ned.IdealChannel\""
par RGG.node[35].port$o[9].channel typename "\"ned.IdealChannel\""
par RGG.node[52].port$o[4].channel typename "\"ned.IdealChannel\""
par RGG.node[35].port$o[10].channel typename "\"ned.IdealChannel\""
par RGG.node[56].port$o[4].channel typename "\"ned.IdealChannel\""
par RGG.node[35].port$o[11].channel typename "\"ned.IdealChannel\""
par RGG.node[61].port$o[10].channel typename "\"ned.IdealChannel\""
par RGG.node[35].port$o[12].channel typename "\"ned.IdealChannel\""
par RGG.node[62].port$o[6].channel typename "\"ned.IdealChannel\""
par RGG.node[35].port$o[13].channel typename "\"ned.IdealChannel\""
par RGG.node[70].port$o[6].channel typename "\"ned.IdealChannel\""
par RGG.node[35].port$o[14].channel typename "\"ned.IdealChannel\""
par RGG.node[71].port$o[1].channel typename "\"ned.IdealChannel\""
par RGG.node[35].port$o[15].channel typename "\"ned.IdealChannel\""
par RGG.node[72].port$o[9].channel typename "\"ned.IdealChannel\""
par RGG.node[35].port$o[16].channel typename "\"ned.IdealChannel\""
par RGG.node[73].port$o[7].channel typename "\"ned.IdealChannel\""
par RGG.node[35].port$o[17].channel typename "\"ned.IdealChannel\""
par RGG.node[76].port$o[1].channel typename "\"ned.IdealChannel\""
par RGG.node[35].port$o[18].channel typename "\"ned.IdealChannel\""
par RGG.node[78].port$o[6].channel typename "\"ned.IdealChannel\""
par RGG.node[35].port$o[19].channel typename "\"ned.IdealChannel\""
par RGG.node[80].port$o[6].channel typename "\"ned.IdealChannel\""
par RGG.node[35].port$o[20].channel typename "\"ned.IdealChannel\""
par RGG.node[85].port$o[5].channel typename "\"ned.IdealChannel\""
par RGG.node[36].port$o[7].channel typename "\"ned.IdealChannel\""
par RGG.node[50].port$o[5].channel typename "\"ned.IdealChannel\""
par RGG.node[36].port$o[8].channel typename "\"ned.IdealChannel\""
par RGG.node[55].port$o[6].channel typename "\"ned.IdealChannel\""
par RGG.node[36].port$o[9].channel typename "\"ned.IdealChannel\""
par RGG.node[57].port$o[10].channel typename "\"ned.IdealChannel\""
par RGG.node[36].port$o[10].channel typename "\"ned.IdealChannel\""
par RGG.node[61].port$o[11].channel typename "\"ned.IdealChannel\""
par RGG.node[36].port$o[11].channel typename "\"ned.IdealChannel\""
par RGG.node[62].port$o[7].channel typename "\"ned.IdealChannel\""
par RGG.node[36].port$o[12].channel typename "\"ned.IdealChannel\""
par RGG.node[72].port$o[10].channel typename "\"ned.IdealChannel\""
par RGG.node[36].port$o[13].channel typename "\"ned.IdealChannel\""
par RGG.node[74].port$o[6].channel typename "\"ned.IdealChannel\""
par RGG.node[36].port$o[14].channel typename "\"ned.IdealChannel\""
par RGG.node[78].port$o[7].channel typename "\"ned.IdealChannel\""
par RGG.node[36].port$o[15].channel typename "\"ned.IdealChannel\""
par RGG.node[80].port$o[7].channel typename "\"ned.IdealChannel\""
par RGG.node[36].port$o[16].channel typename "\"ned.IdealChannel\""
par RGG.node[81].port$o[4].channel typename "\"ned.IdealChannel\""
par RGG.node[36].port$o[17].channel typename "\"ned.IdealChannel\""
par RGG.node[84].port$o[7].channel typename "\"ned.IdealChannel\""
par RGG.node[36].port$o[18].channel typename "\"ned.IdealChannel\""
par RGG.node[90].port$o[5].channel typename "\"ned.IdealChannel\""
par RGG.node[36].port$o[19].channel typename "\"ned.IdealChannel\""
par RGG.node[93].port$o[10].channel typename "\"ned.IdealChannel\""
par RGG.node[37].port$o[2].channel typename "\"ned.IdealChannel\""
par RGG.node[40].port$o[2].channel typename "\"ned.IdealChannel\""
par RGG.node[37].port$o[3].channel typename "\"ned.IdealChannel\""
par RGG.node[49].port$o[2].channel typename "\"ned.IdealChannel\""
par RGG.node[37].port$o[4].channel typename "\"ned.IdealChannel\""
par RGG.node[67].port$o[4].channel typename "\"ned.IdealChannel\""
par RGG.node[37].port$o[5].channel typename "\"ned.IdealChannel\""
par RGG.node[88].port$o[3].channel typename "\"ned.IdealChannel\""
par RGG.node[37].port$o[6].channel typename "\"ned.IdealChannel\""
par RGG.node[91].port$o[3].channel typename "\"ned.IdealChannel\""
par RGG.node[38].port$o[4].channel typename "\"ned.IdealChannel\""
par RGG.node[44].port$o[3].channel typename "\"ned.IdealChannel\""
par RGG.node[38].port$o[5].channel typename "\"ned.IdealChannel\""
par RGG.node[46].port$o[3].channel typename "\"ned.IdealChannel\""
par RGG.node[38].port$o[6].channel typename "\"ned.IdealChannel\""
par RGG.node[53].port$o[2].channel typename "\"ned.IdealChannel\""
par RGG.node[38].port$o[7].channel typename "\"ned.IdealChannel\""
par RGG.node[96].port$o[2].channel typename "\"ned.IdealChannel\""
par RGG.node[39].port$o[6].channel typename "\"ned.IdealChannel\""
par RGG.node[42].port$o[4].channel typename "\"ned.IdealChannel\""
par RGG.node[39].port$o[7].channel typename "\"ned.IdealChannel\""
par RGG.node[43].port$o[8].channel typename "\"ned.IdealChannel\""
par RGG.node[39].port$o[8].channel typename "\"ned.IdealChannel\""
par RGG.node[59].port$o[9].channel typename "\"ned.IdealChannel\""
par RGG.node[39].port$o[9].channel typename "\"ned.IdealChannel\""
par RGG.node[60].port$o[7].channel typename "\"ned.IdealChannel\""
par RGG.node[39].port$o[10].channel typename "\"ned.IdealChannel\""
par RGG.node[64].port$o[4].channel typename "\"ned.IdealChannel\""
par RGG.node[39].port$o[11].channel typename "\"ned.IdealChannel\""
par RGG.node[96].port$o[3].channel typename "\"ned.IdealChannel\""
par RGG.node[39].port$o[12].channel typename "\"ned.IdealChannel\""
par RGG.node[97].port$o[2].channel typename "\"ned.IdealChannel\""
par RGG.node[39].port$o[13].channel typename "\"ned.IdealChannel\""
par RGG.node[98].port$o[8].channel typename "\"ned.IdealChannel\""
par RGG.node[39].port$o[14].channel typename "\"ned.IdealChannel\""
par RGG.node[99].port$o[4].channel typename "\"ned.IdealChannel\""
par RGG.node[40].port$o[3].channel typename "\"ned.IdealChannel\""
par RGG.node[49].port$o[3].channel typename "\"ned.IdealChannel\""
par RGG.node[40].port$o[4].channel typename "\"ned.IdealChannel\""
par RGG.node[67].port$o[5].channel typename "\"ned.IdealChannel\""
par RGG.node[40].port$o[5].channel typename "\"ned.IdealChannel\""
par RGG.node[88].port$o[4].channel typename "\"ned.IdealChannel\""
par RGG.node[40].port$o[6].channel typename "\"ned.IdealChannel\""
par RGG.node[91].port$o[4].channel typename "\"ned.IdealChannel\""
par RGG.node[41].port$o[4].channel typename "\"ned.IdealChannel\""
par RGG.node[50].port$o[6].channel typename "\"ned.IdealChannel\""
par RGG.node[41].port$o[5].channel typename "\"ned.IdealChannel\""
par RGG.node[55].port$o[7].channel typename "\"ned.IdealChannel\""
par RGG.node[41].port$o[6].channel typename "\"ned.IdealChannel\""
par RGG.node[62].port$o[8].channel typename "\"ned.IdealChannel\""
par RGG.node[41].port$o[7].channel typename "\"ned.IdealChannel\""
par RGG.node[74].port$o[7].channel typename "\"ned.IdealChannel\""
par RGG.node[41].port$o[8].channel typename "\"ned.IdealChannel\""
par RGG.node[81].port$o[5].channel typename "\"ned.IdealChannel\""
par RGG.node[41].port$o[9].channel typename "\"ned.IdealChannel\""
par RGG.node[87].port$o[3].channel typename "\"ned.IdealChannel\""
par RGG.node[41].port$o[10].channel typename "\"ned.IdealChannel\""
par RGG.node[90].port$o[6].channel typename "\"ned.IdealChannel\""
par RGG.node[41].port$o[11].channel typename "\"ned.IdealChannel\""
par RGG.node[95].port$o[3].channel typename "\"ned.IdealChannel\""
par RGG.node[42].port$o[5].channel typename "\"ned.IdealChannel\""
par RGG.node[59].port$o[10].channel typename "\"ned.IdealChannel\""
par RGG.node[42].port$o[6].channel typename "\"ned.IdealChannel\""
par RGG.node[64].port$o[5].channel typename "\"ned.IdealChannel\""
par RGG.node[42].port$o[7].channel typename "\"ned.IdealChannel\""
par RGG.node[83].port$o[6].channel typename "\"ned.IdealChannel\""
par RGG.node[42].port$o[8].channel typename "\"ned.IdealChannel\""
par RGG.node[92].port$o[4].channel typename "\"ned.IdealChannel\""
par RGG.node[42].port$o[9].channel typename "\"ned.IdealChannel\""
par RGG.node[97].port$o[3].channel typename "\"ned.IdealChannel\""
par RGG.node[42].port$o[10].channel typename "\"ned.IdealChannel\""
par RGG.node[98].port$o[9].channel typename "\"ned.IdealChannel\""
par RGG.node[42].port$o[11].channel typename "\"ned.IdealChannel\""
par RGG.node[99].port$o[5].channel typename "\"ned.IdealChannel\""
par RGG.node[43].port$o[9].channel typename "\"ned.IdealChannel\""
par RGG.node[47].port$o[7].channel typename "\"ned.IdealChannel\""
par RGG.node[43].port$o[10].channel typename "\"ned.IdealChannel\""
par RGG.node[48].port$o[7].channel typename "\"ned.IdealChannel\""
par RGG.node[43].port$o[11].channel typename "\"ned.IdealChannel\""
par RGG.node[51].port$o[7].channel typename "\"ned.IdealChannel\""
par RGG.node[43].port$o[12].channel typename "\"ned.IdealChannel\""
par RGG.node[59].port$o[11].channel typename "\"ned.IdealChannel\""
par RGG.node[43].port$o[13].channel typename "\"ned.IdealChannel\""
par RGG.node[60].port$o[8].channel typename "\"ned.IdealChannel\""
par RGG.node[43].port$o[14].channel typename "\"ned.IdealChannel\""
par RGG.node[64].port$o[6].channel typename "\"ned.IdealChannel\""
par RGG.node[43].port$o[15].channel typename "\"ned.IdealChannel\""
par RGG.node[65].port$o[8].channel typename "\"ned.IdealChannel\""
par RGG.node[43].port$o[16].channel typename "\"ned.IdealChannel\""
par RGG.node[69].port$o[10].channel typename "\"ned.IdealChannel\""
par RGG.node[43].port$o[17].channel typename "\"ned.IdealChannel\""
par RGG.node[79].port$o[7].channel typename "\"ned.IdealChannel\""
par RGG.node[43].port$o[18].channel typename "\"ned.IdealChannel\""
par RGG.node[96].port$o[4].channel typename "\"ned.IdealChannel\""
par RGG.node[43].port$o[19].channel typename "\"ned.IdealChannel\""
par RGG.node[97].port$o[4].channel typename "\"ned.IdealChannel\""
par RGG.node[43].port$o[20].channel typename "\"ned.IdealChannel\""
par RGG.node[98].port$o[10].channel typename "\"ned.IdealChannel\""
par RGG.node[43].port$o[21].channel typename "\"ned.IdealChannel\""
par RGG.node[99].port$o[6].channel typename "\"ned.IdealChannel\""
par RGG.node[44].port$o[4].channel typename "\"ned.IdealChannel\""
par RGG.node[46].port$o[4].channel typename "\"ned.IdealChannel\""
par RGG.node[44].port$o[5].channel typename "\"ned.IdealChannel\""
par RGG.node[53].port$o[3].channel typename "\"ned.IdealChannel\""
par RGG.node[44].port$o[6].channel typename "\"ned.IdealChannel\""
par RGG.node[54].port$o[8].channel typename "\"ned.IdealChannel\""
par RGG.node[45].port$o[12].channel typename "\"ned.IdealChannel\""
par RGG.node[48].port$o[8].channel typename "\"ned.IdealChannel\""
par RGG.node[45].port$o[13].channel typename "\"ned.IdealChannel\""
par RGG.node[54].port$o[9].channel typename "\"ned.IdealChannel\""
par RGG.node[45].port$o[14].channel typename "\"ned.IdealChannel\""
par RGG.node[61].port$o[12].channel typename "\"ned.IdealChannel\""
par RGG.node[45].port$o[15].channel typename "\"ned.IdealChannel\""
par RGG.node[65].port$o[9].channel typename "\"ned.IdealChannel\""
par RGG.node[45].port$o[16].channel typename "\"ned.IdealChannel\""
par RGG.node[70].port$o[7].channel typename "\"ned.IdealChannel\""
par RGG.node[45].port$o[17].channel typename "\"ned.IdealChannel\""
par RGG.node[72].port$o[11].channel typename "\"ned.IdealChannel\""
par RGG.node[45].port$o[18].channel typename "\"ned.IdealChannel\""
par RGG.node[73].port$o[8].channel typename "\"ned.IdealChannel\""
par RGG.node[45].port$o[19].channel typename "\"ned.IdealChannel\""
par RGG.node[85].port$o[6].channel typename "\"ned.IdealChannel\""
par RGG.node[46].port$o[5].channel typename "\"ned.IdealChannel\""
par RGG.node[48].port$o[9].channel typename "\"ned.IdealChannel\""
par RGG.node[46].port$o[6].channel typename "\"ned.IdealChannel\""
par RGG.node[53].port$o[4].channel typename "\"ned.IdealChannel\""
par RGG.node[46].port$o[7].channel typename "\"ned.IdealChannel\""
par RGG.node[96].port$o[5].channel typename "\"ned.IdealChannel\""
par RGG.node[46].port$o[8].channel typename "\"ned.IdealChannel\""
par RGG.node[97].port$o[5].channel typename "\"ned.IdealChannel\""
par RGG.node[47].port$o[8].channel typename "\"ned.IdealChannel\""
par RGG.node[51].port$o[8].channel typename "\"ned.IdealChannel\""
par RGG.node[47].port$o[9].channel typename "\"ned.IdealChannel\""
par RGG.node[57].port$o[11].channel typename "\"ned.IdealChannel\""
par RGG.node[47].port$o[10].channel typename "\"ned.IdealChannel\""
par RGG.node[59].port$o[12].channel typename "\"ned.IdealChannel\""
par RGG.node[47].port$o[11].channel typename "\"ned.IdealChannel\""
par RGG.node[60].port$o[9].channel typename "\"ned.IdealChannel\""
par RGG.node[47].port$o[12].channel typename "\"ned.IdealChannel\""
par RGG.node[65].port$o[10].channel typename "\"ned.IdealChannel\""
par RGG.node[47].port$o[13].channel typename "\"ned.IdealChannel\""
par RGG.node[66].port$o[9].channel typename "\"ned.IdealChannel\""
par RGG.node[47].port$o[14].channel typename "\"ned.IdealChannel\""
par RGG.node[69].port$o[11].channel typename "\"ned.IdealChannel\""
par RGG.node[47].port$o[15].channel typename "\"ned.IdealChannel\""
par RGG.node[75].port$o[9].channel typename "\"ned.IdealChannel\""
par RGG.node[47].port$o[16].channel typename "\"ned.IdealChannel\""
par RGG.node[79].port$o[8].channel typename "\"ned.IdealChannel\""
par RGG.node[47].port$o[17].channel typename "\"ned.IdealChannel\""
par RGG.node[84].port$o[8].channel typename "\"ned.IdealChannel\""
par RGG.node[47].port$o[18].channel typename "\"ned.IdealChannel\""
par RGG.node[93].port$o[11].channel typename "\"ned.IdealChannel\""
par RGG.node[47].port$o[19].channel typename "\"ned.IdealChannel\""
par RGG.node[98].port$o[11].channel typename "\"ned.IdealChannel\""
par RGG.node[48].port$o[10].channel typename "\"ned.IdealChannel\""
par RGG.node[57].port$o[12].channel typename "\"ned.IdealChannel\""
par RGG.node[48].port$o[11].channel typename "\"ned.IdealChannel\""
par RGG.node[59].port$o[13].channel typename "\"ned.IdealChannel\""
par RGG.node[48].port$o[12].channel typename "\"ned.IdealChannel\""
par RGG.node[65].port$o[11].channel typename "\"ned.IdealChannel\""
par RGG.node[48].port$o[13].channel typename "\"ned.IdealChannel\""
par RGG.node[69].port$o[12].channel typename "\"ned.IdealChannel\""
par RGG.node[49].port$o[4].channel typename "\"ned.IdealChannel\""
par RGG.node[67].port$o[6].channel typename "\"ned.IdealChannel\""
par RGG.node[49].port$o[5].channel typename "\"ned.IdealChannel\""
par RGG.node[88].port$o[5].channel typename "\"ned.IdealChannel\""
par RGG.node[49].port$o[6].channel typename "\"ned.IdealChannel\""
par RGG.node[91].port$o[5].channel typename "\"ned.IdealChannel\""
par RGG.node[50].port$o[7].channel typename "\"ned.IdealChannel\""
par RGG.node[55].port$o[8].channel typename "\"ned.IdealChannel\""
par RGG.node[50].port$o[8].channel typename "\"ned.IdealChannel\""
par RGG.node[62].port$o[9].channel typename "\"ned.IdealChannel\""
par RGG.node[50].port$o[9].channel typename "\"ned.IdealChannel\""
par RGG.node[63].port$o[2].channel typename "\"ned.IdealChannel\""
par RGG.node[50].port$o[10].channel typename "\"ned.IdealChannel\""
par RGG.node[74].port$o[8].channel typename "\"ned.IdealChannel\""
par RGG.node[50].port$o[11].channel typename "\"ned.IdealChannel\""
par RGG.node[80].port$o[8].channel typename "\"ned.IdealChannel\""
par RGG.node[50].port$o[12].channel typename "\"ned.IdealChannel\""
par RGG.node[86].port$o[4].channel typename "\"ned.IdealChannel\""
par RGG.node[50].port$o[13].channel typename "\"ned.IdealChannel\""
par RGG.node[90].port$o[7].channel typename "\"ned.IdealChannel\""
par RGG.node[51].port$o[9].channel typename "\"ned.IdealChannel\""
par RGG.node[57].port$o[13].channel typename "\"ned.IdealChannel\""
par RGG.node[51].port$o[10].channel typename "\"ned.IdealChannel\""
par RGG.node[58].port$o[3].channel typename "\"ned.IdealChannel\""
par RGG.node[51].port$o[11].channel typename "\"ned.IdealChannel\""
par RGG.node[59].port$o[14].channel typename "\"ned.IdealChannel\""
par RGG.node[51].port$o[12].channel typename "\"ned.IdealChannel\""
par RGG.node[60].port$o[10].channel typename "\"ned.IdealChannel\""
par RGG.node[51].port$o[13].channel typename "\"ned.IdealChannel\""
par RGG.node[66].port$o[10].channel typename "\"ned.IdealChannel\""
par RGG.node[51].port$o[14].channel typename "\"ned.IdealChannel\""
par RGG.node[69].port$o[13].channel typename "\"ned.IdealChannel\""
par RGG.node[51].port$o[15].channel typename "\"ned.IdealChannel\""
par RGG.node[75].port$o[10].channel typename "\"ned.IdealChannel\""
par RGG.node[51].port$o[16].channel typename "\"ned.IdealChannel\""
par RGG.node[79].port$o[9].channel typename "\"ned.IdealChannel\""
par RGG.node[51].port$o[17].channel typename "\"ned.IdealChannel\""
par RGG.node[84].port$o[9].channel typename "\"ned.IdealChannel\""
par RGG.node[51].port$o[18].channel typename "\"ned.IdealChannel\""
par RGG.node[89].port$o[8].channel typename "\"ned.IdealChannel\""
par RGG.node[51].port$o[19].channel typename "\"ned.IdealChannel\""
par RGG.node[93].port$o[12].channel typename "\"ned.IdealChannel\""
par RGG.node[51].port$o[20].channel typename "\"ned.IdealChannel\""
par RGG.node[94].port$o[5].channel typename "\"ned.IdealChannel\""
par RGG.node[51].port$o[21].channel typename "\"ned.IdealChannel\""
par RGG.node[98].port$o[12].channel typename "\"ned.IdealChannel\""
par RGG.node[52].port$o[5].channel typename "\"ned.IdealChannel\""
par RGG.node[56].port$o[5].channel typename "\"ned.IdealChannel\""
par RGG.node[52].port$o[6].channel typename "\"ned.IdealChannel\""
par RGG.node[61].port$o[13].channel typename "\"ned.IdealChannel\""
par RGG.node[52].port$o[7].channel typename "\"ned.IdealChannel\""
par RGG.node[70].port$o[8].channel typename "\"ned.IdealChannel\""
par RGG.node[52].port$o[8].channel typename "\"ned.IdealChannel\""
par RGG.node[71].port$o[2].channel typename "\"ned.IdealChannel\""
par RGG.node[52].port$o[9].channel typename "\"ned.IdealChannel\""
par RGG.node[72].port$o[12].channel typename "\"ned.IdealChannel\""
par RGG.node[52].port$o[10].channel typename "\"ned.IdealChannel\""
par RGG.node[73].port$o[9].channel typename "\"ned.IdealChannel\""
par RGG.node[52].port$o[11].channel typename "\"ned.IdealChannel\""
par RGG.node[76].port$o[2].channel typename "\"ned.IdealChannel\""
par RGG.node[52].port$o[12].channel typename "\"ned.IdealChannel\""
par RGG.node[78].port$o[8].channel typename "\"ned.IdealChannel\""
par RGG.node[52].port$o[13].channel typename "\"ned.IdealChannel\""
par RGG.node[80].port$o[9].channel typename "\"ned.IdealChannel\""
par RGG.node[52].port$o[14].channel typename "\"ned.IdealChannel\""
par RGG.node[85].port$o[7].channel typename "\"ned.IdealChannel\""
par RGG.node[52].port$o[15].channel typename "\"ned.IdealChannel\""
par RGG.node[86].port$o[5].channel typename "\"ned.IdealChannel\""
par RGG.node[53].port$o[5].channel typename "\"ned.IdealChannel\""
[...]
par RGG.node[73].port$o[13].channel typename "\"ned.IdealChannel\""
par RGG.node[70].port$o[15].channel typename "\"ned.IdealChannel\""
par RGG.node[76].port$o[5].channel typename "\"ned.IdealChannel\""
par RGG.node[70].port$o[16].channel typename "\"ned.IdealChannel\""
par RGG.node[85].port$o[11].channel typename "\"ned.IdealChannel\""
par RGG.node[71].port$o[6].channel typename "\"ned.IdealChannel\""
par RGG.node[76].port$o[6].channel typename "\"ned.IdealChannel\""
par RGG.node[71].port$o[7].channel typename "\"ned.IdealChannel\""
par RGG.node[80].port$o[14].channel typename "\"ned.IdealChannel\""
par RGG.node[71].port$o[8].channel typename "\"ned.IdealChannel\""
par RGG.node[86].port$o[8].channel typename "\"ned.IdealChannel\""
par RGG.node[72].port$o[16].channel typename "\"ned.IdealChannel\""
par RGG.node[73].port$o[14].channel typename "\"ned.IdealChannel\""
par RGG.node[72].port$o[17].channel typename "\"ned.IdealChannel\""
par RGG.node[78].port$o[13].channel typename "\"ned.IdealChannel\""
par RGG.node[72].port$o[18].channel typename "\"ned.IdealChannel\""
par RGG.node[85].port$o[12].channel typename "\"ned.IdealChannel\""
par RGG.node[73].port$o[15].channel typename "\"ned.IdealChannel\""
par RGG.node[85].port$o[13].channel typename "\"ned.IdealChannel\""
par RGG.node[74].port$o[12].channel typename "\"ned.IdealChannel\""
par RGG.node[78].port$o[14].channel typename "\"ned.IdealChannel\""
par RGG.node[74].port$o[13].channel typename "\"ned.IdealChannel\""
par RGG.node[80].port$o[15].channel typename "\"ned.IdealChannel\""
par RGG.node[74].port$o[14].channel typename "\"ned.IdealChannel\""
par RGG.node[81].port$o[9].channel typename "\"ned.IdealChannel\""
par RGG.node[74].port$o[15].channel typename "\"ned.IdealChannel\""
par RGG.node[84].port$o[15].channel typename "\"ned.IdealChannel\""
par RGG.node[74].port$o[16].channel typename "\"ned.IdealChannel\""
par RGG.node[90].port$o[11].channel typename "\"ned.IdealChannel\""
par RGG.node[74].port$o[17].channel typename "\"ned.IdealChannel\""
par RGG.node[93].port$o[20].channel typename "\"ned.IdealChannel\""
par RGG.node[74].port$o[18].channel typename "\"ned.IdealChannel\""
par RGG.node[95].port$o[7].channel typename "\"ned.IdealChannel\""
par RGG.node[75].port$o[15].channel typename "\"ned.IdealChannel\""
par RGG.node[79].port$o[16].channel typename "\"ned.IdealChannel\""
par RGG.node[75].port$o[16].channel typename "\"ned.IdealChannel\""
par RGG.node[81].port$o[10].channel typename "\"ned.IdealChannel\""
par RGG.node[75].port$o[17].channel typename "\"ned.IdealChannel\""
par RGG.node[82].port$o[6].channel typename "\"ned.IdealChannel\""
par RGG.node[75].port$o[18].channel typename "\"ned.IdealChannel\""
par RGG.node[84].port$o[16].channel typename "\"ned.IdealChannel\""
par RGG.node[75].port$o[19].channel typename "\"ned.IdealChannel\""
par RGG.node[89].port$o[12].channel typename "\"ned.IdealChannel\""
par RGG.node[75].port$o[20].channel typename "\"ned.IdealChannel\""
par RGG.node[93].port$o[21].channel typename "\"ned.IdealChannel\""
par RGG.node[75].port$o[21].channel typename "\"ned.IdealChannel\""
par RGG.node[94].port$o[9].channel typename "\"ned.IdealChannel\""
par RGG.node[76].port$o[7].channel typename "\"ned.IdealChannel\""
par RGG.node[80].port$o[16].channel typename "\"ned.IdealChannel\""
par RGG.node[76].port$o[8].channel typename "\"ned.IdealChannel\""
par RGG.node[86].port$o[9].channel typename "\"ned.IdealChannel\""
par RGG.node[77].port$o[7].channel typename "\"ned.IdealChannel\""
par RGG.node[89].port$o[13].channel typename "\"ned.IdealChannel\""
par RGG.node[78].port$o[15].channel typename "\"ned.IdealChannel\""
par RGG.node[80].port$o[17].channel typename "\"ned.IdealChannel\""
par RGG.node[78].port$o[16].channel typename "\"ned.IdealChannel\""
par RGG.node[81].port$o[11].channel typename "\"ned.IdealChannel\""
par RGG.node[78].port$o[17].channel typename "\"ned.IdealChannel\""
par RGG.node[90].port$o[12].channel typename "\"ned.IdealChannel\""
par RGG.node[78].port$o[18].channel typename "\"ned.IdealChannel\""
par RGG.node[93].port$o[22].channel typename "\"ned.IdealChannel\""
par RGG.node[79].port$o[17].channel typename "\"ned.IdealChannel\""
par RGG.node[84].port$o[17].channel typename "\"ned.IdealChannel\""
par RGG.node[79].port$o[18].channel typename "\"ned.IdealChannel\""
par RGG.node[93].port$o[23].channel typename "\"ned.IdealChannel\""
par RGG.node[79].port$o[19].channel typename "\"ned.IdealChannel\""
par RGG.node[98].port$o[18].channel typename "\"ned.IdealChannel\""
par RGG.node[80].port$o[18].channel typename "\"ned.IdealChannel\""
par RGG.node[86].port$o[10].channel typename "\"ned.IdealChannel\""
par RGG.node[80].port$o[19].channel typename "\"ned.IdealChannel\""
par RGG.node[90].port$o[13].channel typename "\"ned.IdealChannel\""
par RGG.node[81].port$o[12].channel typename "\"ned.IdealChannel\""
par RGG.node[82].port$o[7].channel typename "\"ned.IdealChannel\""
par RGG.node[81].port$o[13].channel typename "\"ned.IdealChannel\""
par RGG.node[84].port$o[18].channel typename "\"ned.IdealChannel\""
par RGG.node[81].port$o[14].channel typename "\"ned.IdealChannel\""
par RGG.node[87].port$o[6].channel typename "\"ned.IdealChannel\""
par RGG.node[81].port$o[15].channel typename "\"ned.IdealChannel\""
par RGG.node[90].port$o[14].channel typename "\"ned.IdealChannel\""
par RGG.node[81].port$o[16].channel typename "\"ned.IdealChannel\""
par RGG.node[93].port$o[24].channel typename "\"ned.IdealChannel\""
par RGG.node[81].port$o[17].channel typename "\"ned.IdealChannel\""
par RGG.node[94].port$o[10].channel typename "\"ned.IdealChannel\""
par RGG.node[81].port$o[18].channel typename "\"ned.IdealChannel\""
par RGG.node[95].port$o[8].channel typename "\"ned.IdealChannel\""
par RGG.node[82].port$o[8].channel typename "\"ned.IdealChannel\""
par RGG.node[84].port$o[19].channel typename "\"ned.IdealChannel\""
par RGG.node[82].port$o[9].channel typename "\"ned.IdealChannel\""
par RGG.node[87].port$o[7].channel typename "\"ned.IdealChannel\""
par RGG.node[82].port$o[10].channel typename "\"ned.IdealChannel\""
par RGG.node[89].port$o[14].channel typename "\"ned.IdealChannel\""
par RGG.node[82].port$o[11].channel typename "\"ned.IdealChannel\""
par RGG.node[91].port$o[7].channel typename "\"ned.IdealChannel\""
par RGG.node[82].port$o[12].channel typename "\"ned.IdealChannel\""
par RGG.node[94].port$o[11].channel typename "\"ned.IdealChannel\""
par RGG.node[82].port$o[13].channel typename "\"ned.IdealChannel\""
par RGG.node[95].port$o[9].channel typename "\"ned.IdealChannel\""
par RGG.node[83].port$o[8].channel typename "\"ned.IdealChannel\""
par RGG.node[92].port$o[6].channel typename "\"ned.IdealChannel\""
par RGG.node[83].port$o[9].channel typename "\"ned.IdealChannel\""
par RGG.node[99].port$o[9].channel typename "\"ned.IdealChannel\""
par RGG.node[84].port$o[20].channel typename "\"ned.IdealChannel\""
par RGG.node[89].port$o[15].channel typename "\"ned.IdealChannel\""
par RGG.node[84].port$o[21].channel typename "\"ned.IdealChannel\""
par RGG.node[93].port$o[25].channel typename "\"ned.IdealChannel\""
par RGG.node[84].port$o[22].channel typename "\"ned.IdealChannel\""
par RGG.node[94].port$o[12].channel typename "\"ned.IdealChannel\""
par RGG.node[86].port$o[11].channel typename "\"ned.IdealChannel\""
par RGG.node[90].port$o[15].channel typename "\"ned.IdealChannel\""
par RGG.node[87].port$o[8].channel typename "\"ned.IdealChannel\""
par RGG.node[88].port$o[7].channel typename "\"ned.IdealChannel\""
par RGG.node[87].port$o[9].channel typename "\"ned.IdealChannel\""
par RGG.node[91].port$o[8].channel typename "\"ned.IdealChannel\""
par RGG.node[87].port$o[10].channel typename "\"ned.IdealChannel\""
par RGG.node[94].port$o[13].channel typename "\"ned.IdealChannel\""
par RGG.node[87].port$o[11].channel typename "\"ned.IdealChannel\""
par RGG.node[95].port$o[10].channel typename "\"ned.IdealChannel\""
par RGG.node[88].port$o[8].channel typename "\"ned.IdealChannel\""
par RGG.node[91].port$o[9].channel typename "\"ned.IdealChannel\""
par RGG.node[89].port$o[16].channel typename "\"ned.IdealChannel\""
par RGG.node[94].port$o[14].channel typename "\"ned.IdealChannel\""
par RGG.node[91].port$o[10].channel typename "\"ned.IdealChannel\""
par RGG.node[95].port$o[11].channel typename "\"ned.IdealChannel\""
par RGG.node[92].port$o[7].channel typename "\"ned.IdealChannel\""
par RGG.node[99].port$o[10].channel typename "\"ned.IdealChannel\""
par RGG.node[94].port$o[15].channel typename "\"ned.IdealChannel\""
par RGG.node[95].port$o[12].channel typename "\"ned.IdealChannel\""
par RGG.node[96].port$o[7].channel typename "\"ned.IdealChannel\""
par RGG.node[97].port$o[8].channel typename "\"ned.IdealChannel\""
par RGG.node[97].port$o[9].channel typename "\"ned.IdealChannel\""
par RGG.node[99].port$o[11].channel typename "\"ned.IdealChannel\""
par RGG.node[98].port$o[19].channel typename "\"ned.IdealChannel\""
par RGG.node[99].port$o[12].channel typename "\"ned.IdealChannel\""
par RGG.node[0] typename "\"randomw.Node\""
par RGG.node[0] xCor 0.944497
par RGG.node[0] yCor 0.139226
par RGG.node[1] typename "\"randomw.Node\""
par RGG.node[1] xCor 0.464098
par RGG.node[1] yCor 0.524086
par RGG.node[2] typename "\"randomw.Node\""
par RGG.node[2] xCor 0.192795
par RGG.node[2] yCor 0.756324
par RGG.node[3] typename "\"randomw.Node\""
par RGG.node[3] xCor 0.581895
par RGG.node[3] yCor 0.309672
par RGG.node[4] typename "\"randomw.Node\""
par RGG.node[4] xCor 0.620084
par RGG.node[4] yCor 0.858179
par RGG.node[5] typename "\"randomw.Node\""
par RGG.node[5] xCor 0.684224
par RGG.node[5] yCor 0.0669396
par RGG.node[6] typename "\"randomw.Node\""
par RGG.node[6] xCor 0.103438
par RGG.node[6] yCor 0.624659
par RGG.node[7] typename "\"randomw.Node\""
par RGG.node[7] xCor 0.745476
par RGG.node[7] yCor 0.629756
par RGG.node[8] typename "\"randomw.Node\""
par RGG.node[8] xCor 0.281979
par RGG.node[8] yCor 0.128917
par RGG.node[9] typename "\"randomw.Node\""
par RGG.node[9] xCor 0.753425
par RGG.node[9] yCor 0.305844
par RGG.node[10] typename "\"randomw.Node\""
par RGG.node[10] xCor 0.792706
par RGG.node[10] yCor 0.573791
par RGG.node[11] typename "\"randomw.Node\""
par RGG.node[11] xCor 0.627401
par RGG.node[11] yCor 0.578461
par RGG.node[12] typename "\"randomw.Node\""
par RGG.node[12] xCor 0.443489
par RGG.node[12] yCor 0.00528398
par RGG.node[13] typename "\"randomw.Node\""
par RGG.node[13] xCor 0.963465
par RGG.node[13] yCor 0.606849
par RGG.node[14] typename "\"randomw.Node\""
par RGG.node[14] xCor 0.897067
par RGG.node[14] yCor 0.705028
par RGG.node[15] typename "\"randomw.Node\""
par RGG.node[15] xCor 0.196804
par RGG.node[15] yCor 0.406557
par RGG.node[16] typename "\"randomw.Node\""
par RGG.node[16] xCor 0.595951
par RGG.node[16] yCor 0.0954637
par RGG.node[17] typename "\"randomw.Node\""
par RGG.node[17] xCor 0.573377
par RGG.node[17] yCor 0.910041
par RGG.node[18] typename "\"randomw.Node\""
par RGG.node[18] xCor 0.704949
par RGG.node[18] yCor 0.67288
par RGG.node[19] typename "\"randomw.Node\""
par RGG.node[19] xCor 0.929262
par RGG.node[19] yCor 0.826453
par RGG.node[20] typename "\"randomw.Node\""
par RGG.node[20] xCor 0.0512298
par RGG.node[20] yCor 0.239125
par RGG.node[21] typename "\"randomw.Node\""
par RGG.node[21] xCor 0.134812
par RGG.node[21] yCor 0.859234
par RGG.node[22] typename "\"randomw.Node\""
par RGG.node[22] xCor 0.117029
par RGG.node[22] yCor 0.202185
par RGG.node[23] typename "\"randomw.Node\""
par RGG.node[23] xCor 0.364725
par RGG.node[23] yCor 0.726577
par RGG.node[24] typename "\"randomw.Node\""
par RGG.node[24] xCor 0.803411
par RGG.node[24] yCor 0.364289
par RGG.node[25] typename "\"randomw.Node\""
par RGG.node[25] xCor 0.970243
par RGG.node[25] yCor 0.602414
par RGG.node[26] typename "\"randomw.Node\""
par RGG.node[26] xCor 0.332979
par RGG.node[26] yCor 0.604645
par RGG.node[27] typename "\"randomw.Node\""
par RGG.node[27] xCor 0.47842
par RGG.node[27] yCor 0.539868
par RGG.node[28] typename "\"randomw.Node\""
par RGG.node[28] xCor 0.178937
par RGG.node[28] yCor 0.6597
par RGG.node[29] typename "\"randomw.Node\""
par RGG.node[29] xCor 0.902534
par RGG.node[29] yCor 0.46792
par RGG.node[30] typename "\"randomw.Node\""
par RGG.node[30] xCor 0.763576
par RGG.node[30] yCor 0.605923
par RGG.node[31] typename "\"randomw.Node\""
par RGG.node[31] xCor 0.198861
par RGG.node[31] yCor 0.581504
par RGG.node[32] typename "\"randomw.Node\""
par RGG.node[32] xCor 0.365686
par RGG.node[32] yCor 0.612789
par RGG.node[33] typename "\"randomw.Node\""
par RGG.node[33] xCor 0.595582
par RGG.node[33] yCor 0.364438
par RGG.node[34] typename "\"randomw.Node\""
par RGG.node[34] xCor 0.0400943
par RGG.node[34] yCor 0.501386
par RGG.node[35] typename "\"randomw.Node\""
par RGG.node[35] xCor 0.824628
par RGG.node[35] yCor 0.34567
par RGG.node[36] typename "\"randomw.Node\""
par RGG.node[36] xCor 0.640271
par RGG.node[36] yCor 0.295083
par RGG.node[37] typename "\"randomw.Node\""
par RGG.node[37] xCor 0.019137
par RGG.node[37] yCor 0.105299
par RGG.node[38] typename "\"randomw.Node\""
par RGG.node[38] xCor 0.806038
par RGG.node[38] yCor 0.929382
par RGG.node[39] typename "\"randomw.Node\""
par RGG.node[39] xCor 0.404893
par RGG.node[39] yCor 0.833339
par RGG.node[40] typename "\"randomw.Node\""
par RGG.node[40] xCor 0.00360389
par RGG.node[40] yCor 0.17209
par RGG.node[41] typename "\"randomw.Node\""
par RGG.node[41] xCor 0.465233
par RGG.node[41] yCor 0.0417597
par RGG.node[42] typename "\"randomw.Node\""
par RGG.node[42] xCor 0.336851
par RGG.node[42] yCor 0.946079
par RGG.node[43] typename "\"randomw.Node\""
par RGG.node[43] xCor 0.535399
par RGG.node[43] yCor 0.765256
par RGG.node[44] typename "\"randomw.Node\""
par RGG.node[44] xCor 0.936792
par RGG.node[44] yCor 0.854718
par RGG.node[45] typename "\"randomw.Node\""
par RGG.node[45] xCor 0.876555
par RGG.node[45] yCor 0.582989
par RGG.node[46] typename "\"randomw.Node\""
par RGG.node[46] xCor 0.752074
par RGG.node[46] yCor 0.927697
par RGG.node[47] typename "\"randomw.Node\""
par RGG.node[47] xCor 0.464996
par RGG.node[47] yCor 0.555549
par RGG.node[48] typename "\"randomw.Node\""
par RGG.node[48] xCor 0.703901
par RGG.node[48] yCor 0.684463
par RGG.node[49] typename "\"randomw.Node\""
par RGG.node[49] xCor 0.0387214
par RGG.node[49] yCor 0.188236
par RGG.node[50] typename "\"randomw.Node\""
par RGG.node[50] xCor 0.679701
par RGG.node[50] yCor 0.0858587
par RGG.node[51] typename "\"randomw.Node\""
par RGG.node[51] xCor 0.41898
par RGG.node[51] yCor 0.551022
par RGG.node[52] typename "\"randomw.Node\""
par RGG.node[52] xCor 0.902858
par RGG.node[52] yCor 0.284828
par RGG.node[53] typename "\"randomw.Node\""
par RGG.node[53] xCor 0.945162
par RGG.node[53] yCor 0.884732
par RGG.node[54] typename "\"randomw.Node\""
par RGG.node[54] xCor 0.977051
par RGG.node[54] yCor 0.658644
par RGG.node[55] typename "\"randomw.Node\""
par RGG.node[55] xCor 0.580674
par RGG.node[55] yCor 0.258187
par RGG.node[56] typename "\"randomw.Node\""
par RGG.node[56] xCor 0.975356
par RGG.node[56] yCor 0.302079
par RGG.node[57] typename "\"randomw.Node\""
par RGG.node[57] xCor 0.587285
par RGG.node[57] yCor 0.512487
par RGG.node[58] typename "\"randomw.Node\""
par RGG.node[58] xCor 0.331351
par RGG.node[58] yCor 0.336289
par RGG.node[59] typename "\"randomw.Node\""
par RGG.node[59] xCor 0.475262
par RGG.node[59] yCor 0.763082
par RGG.node[60] typename "\"randomw.Node\""
par RGG.node[60] xCor 0.443172
par RGG.node[60] yCor 0.615048
par RGG.node[61] typename "\"randomw.Node\""
par RGG.node[61] xCor 0.730047
par RGG.node[61] yCor 0.426499
par RGG.node[62] typename "\"randomw.Node\""
par RGG.node[62] xCor 0.629632
par RGG.node[62] yCor 0.192136
par RGG.node[63] typename "\"randomw.Node\""
par RGG.node[63] xCor 0.863061
par RGG.node[63] yCor 0.0214108
par RGG.node[64] typename "\"randomw.Node\""
par RGG.node[64] xCor 0.336031
par RGG.node[64] yCor 0.890805
par RGG.node[65] typename "\"randomw.Node\""
par RGG.node[65] xCor 0.690752
par RGG.node[65] yCor 0.642204
par RGG.node[66] typename "\"randomw.Node\""
par RGG.node[66] xCor 0.418606
par RGG.node[66] yCor 0.514817
par RGG.node[67] typename "\"randomw.Node\""
par RGG.node[67] xCor 0.204663
par RGG.node[67] yCor 0.232963
par RGG.node[68] typename "\"randomw.Node\""
par RGG.node[68] xCor 0.0396344
par RGG.node[68] yCor 0.50468
par RGG.node[69] typename "\"randomw.Node\""
par RGG.node[69] xCor 0.597521
par RGG.node[69] yCor 0.650392
par RGG.node[70] typename "\"randomw.Node\""
par RGG.node[70] xCor 0.939981
par RGG.node[70] yCor 0.412601
par RGG.node[71] typename "\"randomw.Node\""
par RGG.node[71] xCor 0.965501
par RGG.node[71] yCor 0.172322
par RGG.node[72] typename "\"randomw.Node\""
par RGG.node[72] xCor 0.840288
par RGG.node[72] yCor 0.412141
par RGG.node[73] typename "\"randomw.Node\""
par RGG.node[73] xCor 0.925544
par RGG.node[73] yCor 0.425634
par RGG.node[74] typename "\"randomw.Node\""
par RGG.node[74] xCor 0.584153
par RGG.node[74] yCor 0.259373
par RGG.node[75] typename "\"randomw.Node\""
par RGG.node[75] xCor 0.408245
par RGG.node[75] yCor 0.458672
par RGG.node[76] typename "\"randomw.Node\""
par RGG.node[76] xCor 0.969899
par RGG.node[76] yCor 0.176222
par RGG.node[77] typename "\"randomw.Node\""
par RGG.node[77] xCor 0.0713702
par RGG.node[77] yCor 0.540241
par RGG.node[78] typename "\"randomw.Node\""
par RGG.node[78] xCor 0.687339
par RGG.node[78] yCor 0.344435
par RGG.node[79] typename "\"randomw.Node\""
par RGG.node[79] xCor 0.471002
par RGG.node[79] yCor 0.556943
par RGG.node[80] typename "\"randomw.Node\""
par RGG.node[80] xCor 0.781309
par RGG.node[80] yCor 0.168777
par RGG.node[81] typename "\"randomw.Node\""
par RGG.node[81] xCor 0.485275
par RGG.node[81] yCor 0.264778
par RGG.node[82] typename "\"randomw.Node\""
par RGG.node[82] xCor 0.323599
par RGG.node[82] yCor 0.307829
par RGG.node[83] typename "\"randomw.Node\""
par RGG.node[83] xCor 0.137449
par RGG.node[83] yCor 0.821971
par RGG.node[84] typename "\"randomw.Node\""
par RGG.node[84] xCor 0.43439
par RGG.node[84] yCor 0.396787
par RGG.node[85] typename "\"randomw.Node\""
par RGG.node[85] xCor 0.972923
par RGG.node[85] yCor 0.437154
par RGG.node[86] typename "\"randomw.Node\""
par RGG.node[86] xCor 0.79265
par RGG.node[86] yCor 0.0694743
par RGG.node[87] typename "\"randomw.Node\""
par RGG.node[87] xCor 0.326484
par RGG.node[87] yCor 0.146621
par RGG.node[88] typename "\"randomw.Node\""
par RGG.node[88] xCor 0.105655
par RGG.node[88] yCor 0.107904
par RGG.node[89] typename "\"randomw.Node\""
par RGG.node[89] xCor 0.220046
par RGG.node[89] yCor 0.487674
par RGG.node[90] typename "\"randomw.Node\""
par RGG.node[90] xCor 0.664681
par RGG.node[90] yCor 0.146282
par RGG.node[91] typename "\"randomw.Node\""
par RGG.node[91] xCor 0.193184
par RGG.node[91] yCor 0.117936
par RGG.node[92] typename "\"randomw.Node\""
par RGG.node[92] xCor 0.12182
par RGG.node[92] yCor 0.844741
par RGG.node[93] typename "\"randomw.Node\""
par RGG.node[93] xCor 0.547579
par RGG.node[93] yCor 0.488265
par RGG.node[94] typename "\"randomw.Node\""
par RGG.node[94] xCor 0.302345
par RGG.node[94] yCor 0.354813
par RGG.node[95] typename "\"randomw.Node\""
par RGG.node[95] xCor 0.371309
par RGG.node[95] yCor 0.136789
par RGG.node[96] typename "\"randomw.Node\""
par RGG.node[96] xCor 0.616702
par RGG.node[96] yCor 0.922417
par RGG.node[97] typename "\"randomw.Node\""
par RGG.node[97] xCor 0.550885
par RGG.node[97] yCor 0.955547
par RGG.node[98] typename "\"randomw.Node\""
par RGG.node[98] xCor 0.407043
par RGG.node[98] yCor 0.708986
par RGG.node[99] typename "\"randomw.Node\""
par RGG.node[99] xCor 0.357453
par RGG.node[99] yCor 0.864372
par RGG.host typename "\"randomw.Host\""
par RGG.host startNodeIndex 1
attr mutable ""
par RGG.host startNode 11
par RGG typename "\"randomw.simulations.RGG\""
par RGG numNodes 100
par RGG rc 0.25
par RGG enableDuplication true
attr mutable ""
par RGG noBacktracking false
attr mutable ""
par RGG numWalkers 1

