file 58366 1756984398                                           
version 3
run General-217-20250904-14:13:17-15564
attr configname General
attr datetime 20250904-14:13:17
attr datetimef 20250904-141317
attr experiment General
attr inifile omnetpp.ini
attr iterationvars ""
attr iterationvarsd ""
attr iterationvarsf ""
attr measurement ""
attr network TaxiNetwork
attr processid 15564
attr repetition 217
attr replication #217
attr resultdir results
attr runnumber 217
attr seedset 217
config network TaxiNetwork
config seed-set 217
config num-rngs 1
config sim-time-limit 10s
config repeat 500
config *.numWalkers 1
config *.enableDuplication true
config *.rc 700
config **.node[0].xCor 2933
config **.node[0].yCor 2747
config **.node[1].xCor 2919
config **.node[1].yCor 2817
config **.node[2].xCor 2910
config **.node[2].yCor 2861
config **.node[3].xCor 2429
config **.node[3].yCor 2851
config **.node[4].xCor 2908
config **.node[4].yCor 2714
config **.node[5].xCor 2606
config **.node[5].yCor 2722
config **.node[6].xCor 2575
config **.node[6].yCor 2753
config **.node[7].xCor 2654
config **.node[7].yCor 2513
config **.node[8].xCor 2773
config **.node[8].yCor 2580
config **.node[9].xCor 3043
config **.node[9].yCor 2780
config **.node[10].xCor 3020
config **.node[10].yCor 2813
config **.node[11].xCor 2599
config **.node[11].yCor 2300
config **.node[12].xCor 2917
config **.node[12].yCor 2698
config **.node[13].xCor 2625
config **.node[13].yCor 2641
config **.node[14].xCor 2604
config **.node[14].yCor 2790
config **.node[15].xCor 2786
config **.node[15].yCor 3082
config **.node[16].xCor 2603
config **.node[16].yCor 2802
config **.node[17].xCor 2637
config **.node[17].yCor 2869
config **.node[18].xCor 2675
config **.node[18].yCor 2955
config **.node[19].xCor 2845
config **.node[19].yCor 2937
config **.node[20].xCor 2860
config **.node[20].yCor 2888
config **.node[21].xCor 2843
config **.node[21].yCor 4158
config **.node[22].xCor 2852
config **.node[22].yCor 4017
config **.node[23].xCor 2892
config **.node[23].yCor 4961
config **.node[24].xCor 2313
config **.node[24].yCor 3993
config **.node[25].xCor 2891
config **.node[25].yCor 4959
config **.node[26].xCor 2370
config **.node[26].yCor 4050
config **.node[27].xCor 2788
config **.node[27].yCor 3958
config **.node[28].xCor 2819
config **.node[28].yCor 4428
config **.node[29].xCor 2790
config **.node[29].yCor 3761
config **.node[30].xCor 2809
config **.node[30].yCor 2908
config **.node[31].xCor 2919
config **.node[31].yCor 3575
config **.node[32].xCor 2946
config **.node[32].yCor 3466
config **.node[33].xCor 2911
config **.node[33].yCor 3453
config **.node[34].xCor 2370
config **.node[34].yCor 3656
config **.node[35].xCor 2438
config **.node[35].yCor 3738
config **.node[36].xCor 2737
config **.node[36].yCor 3570
config **.node[37].xCor 2921
config **.node[37].yCor 3698
config **.node[38].xCor 2907
config **.node[38].yCor 5197
config **.node[39].xCor 2860
config **.node[39].yCor 3852
config **.node[40].xCor 2927
config **.node[40].yCor 3684
config **.node[41].xCor 3023
config **.node[41].yCor 5313
config **.node[42].xCor 3220
config **.node[42].yCor 5811
config **.node[43].xCor 3432
config **.node[43].yCor 5715
config **.node[44].xCor 2754
config **.node[44].yCor 2463
config **.node[45].xCor 2646
config **.node[45].yCor 2673
config **.node[46].xCor 3051
config **.node[46].yCor 2792
config **.node[47].xCor 1666
config **.node[47].yCor 3697
config **.node[48].xCor 1662
config **.node[48].yCor 3694
config **.node[49].xCor 1664
config **.node[49].yCor 3667
config **.node[50].xCor 1660
config **.node[50].yCor 3664
config **.node[51].xCor 1710
config **.node[51].yCor 3573
config **.node[52].xCor 2082
config **.node[52].yCor 2650
config **.node[53].xCor 2086
config **.node[53].yCor 2657
config **.node[54].xCor 2257
config **.node[54].yCor 3232
config **.node[55].xCor 2258
config **.node[55].yCor 3225
config **.node[56].xCor 1926
config **.node[56].yCor 2570
config **.node[57].xCor 1926
config **.node[57].yCor 2576
config **.node[58].xCor 2104
config **.node[58].yCor 1758
config **.node[59].xCor 1957
config **.node[59].yCor 1826
config **.node[60].xCor 3473
config **.node[60].yCor 1523
config **.node[61].xCor 3335
config **.node[61].yCor 1726
config **.node[62].xCor 3478
config **.node[62].yCor 1517
config **.node[63].xCor 3386
config **.node[63].yCor 2119
config **.node[64].xCor 3474
config **.node[64].yCor 1762
config **.node[65].xCor 3797
config **.node[65].yCor 2099
config **.node[66].xCor 3642
config **.node[66].yCor 2136
config **.node[67].xCor 3481
config **.node[67].yCor 2334
config **.node[68].xCor 3088
config **.node[68].yCor 1505
config **.node[69].xCor 3037
config **.node[69].yCor 1693
config **.node[70].xCor 3026
config **.node[70].yCor 1700
config **.node[71].xCor 3019
config **.node[71].yCor 669
config **.node[72].xCor 3513
config **.node[72].yCor 1358
config **.node[73].xCor 3545
config **.node[73].yCor 1230
config **.node[74].xCor 4228
config **.node[74].yCor 4220
config **.node[75].xCor 3379
config **.node[75].yCor 1207
config **.node[76].xCor 3596
config **.node[76].yCor 963
config **.node[77].xCor 3637
config **.node[77].yCor 1188
config **.node[78].xCor 3759
config **.node[78].yCor 1030
config **.node[79].xCor 2918
config **.node[79].yCor 1455
config **.node[80].xCor 2711
config **.node[80].yCor 1297
config **.node[81].xCor 439
config **.node[81].yCor 1623
config **.node[82].xCor 2857
config **.node[82].yCor 3581
config **.node[83].xCor 2858
config **.node[83].yCor 3584
config **.node[84].xCor 2999
config **.node[84].yCor 2636
config **.node[85].xCor 2905
config **.node[85].yCor 2778
config **.node[86].xCor 2653
config **.node[86].yCor 2845
config **.node[87].xCor 2864
config **.node[87].yCor 2836
config **.node[88].xCor 2426
config **.node[88].yCor 2892
config **.node[89].xCor 2964
config **.node[89].yCor 2804
config **.node[90].xCor 2586
config **.node[90].yCor 3135
config **.node[91].xCor 2864
config **.node[91].yCor 2980
config **.node[92].xCor 2527
config **.node[92].yCor 3219
config **.node[93].xCor 2863
config **.node[93].yCor 3142
config **.node[94].xCor 2485
config **.node[94].yCor 3269
config **.node[95].xCor 2653
config **.node[95].yCor 1065
config **.node[96].xCor 4062
config **.node[96].yCor 400
config **.node[97].xCor 5762
config **.node[97].yCor 3023
config **.node[98].xCor 1414
config **.node[98].yCor 3461
config **.node[99].xCor 2911
config **.node[99].yCor 1737
config **.node[100].xCor 2595
config **.node[100].yCor 2299
config **.node[101].xCor 2702
config **.node[101].yCor 3419
config **.node[102].xCor 2813
config **.node[102].yCor 3307
config **.node[103].xCor 2638
config **.node[103].yCor 2258
config **.node[104].xCor 2590
config **.node[104].yCor 3125
config **.node[105].xCor 1856
config **.node[105].yCor 2990
config **.node[106].xCor 1894
config **.node[106].yCor 2239
config **.node[107].xCor 383
config **.node[107].yCor 1251
config **.node[108].xCor 3447
config **.node[108].yCor 5489
config **.node[109].xCor 3450
config **.node[109].yCor 5697
config **.node[110].xCor 2719
config **.node[110].yCor 1920
config **.node[111].xCor 2085
config **.node[111].yCor 2389
config **.node[112].xCor 1910
config **.node[112].yCor 2548
config **.node[113].xCor 2069
config **.node[113].yCor 2050
config **.node[114].xCor 2184
config **.node[114].yCor 2209
config **.node[115].xCor 2278
config **.node[115].yCor 2390
config **.node[116].xCor 2249
config **.node[116].yCor 2299
config **.node[117].xCor 2356
config **.node[117].yCor 2303
config **.node[118].xCor 2192
config **.node[118].yCor 2475
config **.node[119].xCor 1720
config **.node[119].yCor 2911
config **.node[120].xCor 2400
config **.node[120].yCor 2887
config **.node[121].xCor 3344
config **.node[121].yCor 1890
config **.node[122].xCor 3136
config **.node[122].yCor 2418
config **.node[123].xCor 3243
config **.node[123].yCor 2525
config **.node[124].xCor 2396
config **.node[124].yCor 1267
config **.node[125].xCor 467
config **.node[125].yCor 1875
config **.node[126].xCor 3506
config **.node[126].yCor 1221
config **.node[127].xCor 1034
config **.node[127].yCor 1474
config **.node[128].xCor 2908
config **.node[128].yCor 1784
config **.node[129].xCor 2876
config **.node[129].yCor 1761
config **.node[130].xCor 2849
config **.node[130].yCor 1795
config **.node[131].xCor 3029
config **.node[131].yCor 1859
config **.node[132].xCor 2924
config **.node[132].yCor 1848
config **.node[133].xCor 3493
config **.node[133].yCor 1559
config **.node[134].xCor 2760
config **.node[134].yCor 1761
config **.node[135].xCor 1644
config **.node[135].yCor 3755
config **.node[136].xCor 1463
config **.node[136].yCor 3432
config **.node[137].xCor 2595
config **.node[137].yCor 2849
config **.node[138].xCor 2581
config **.node[138].yCor 2867
config **.node[139].xCor 2524
config **.node[139].yCor 2911
config **.node[140].xCor 2570
config **.node[140].yCor 2924
config **.node[141].xCor 2676
config **.node[141].yCor 2890
config **.node[142].xCor 2666
config **.node[142].yCor 2876
config **.node[143].xCor 3735
config **.node[143].yCor 1726
config **.node[144].xCor 1637
config **.node[144].yCor 3438

vector 0 TaxiNetwork.node[19] visitedPerTimestep ETV
vector 1 TaxiNetwork.node[9] visitedPerTimestep ETV
vector 2 TaxiNetwork.node[33] visitedPerTimestep ETV
vector 3 TaxiNetwork.node[46] visitedPerTimestep ETV
vector 4 TaxiNetwork.node[67] visitedPerTimestep ETV
vector 5 TaxiNetwork.node[121] visitedPerTimestep ETV
vector 6 TaxiNetwork.node[60] visitedPerTimestep ETV
vector 7 TaxiNetwork.node[62] visitedPerTimestep ETV
vector 8 TaxiNetwork.node[99] visitedPerTimestep ETV
vector 9 TaxiNetwork.node[130] visitedPerTimestep ETV
vector 10 TaxiNetwork.node[103] visitedPerTimestep ETV
vector 11 TaxiNetwork.node[17] visitedPerTimestep ETV
vector 12 TaxiNetwork.node[118] visitedPerTimestep ETV
vector 13 TaxiNetwork.node[106] visitedPerTimestep ETV
vector 14 TaxiNetwork.node[57] visitedPerTimestep ETV
vector 15 TaxiNetwork.node[113] visitedPerTimestep ETV
vector 16 TaxiNetwork.node[114] visitedPerTimestep ETV
vector 17 TaxiNetwork.node[56] visitedPerTimestep ETV
vector 18 TaxiNetwork.node[53] visitedPerTimestep ETV
vector 19 TaxiNetwork.node[116] visitedPerTimestep ETV
vector 20 TaxiNetwork.node[120] visitedPerTimestep ETV
vector 21 TaxiNetwork.node[142] visitedPerTimestep ETV
vector 22 TaxiNetwork.node[6] visitedPerTimestep ETV
vector 23 TaxiNetwork.node[30] visitedPerTimestep ETV
vector 24 TaxiNetwork.node[138] visitedPerTimestep ETV
vector 25 TaxiNetwork.node[111] visitedPerTimestep ETV
vector 26 TaxiNetwork.node[117] visitedPerTimestep ETV
vector 27 TaxiNetwork.node[11] visitedPerTimestep ETV
vector 28 TaxiNetwork.node[45] visitedPerTimestep ETV
vector 29 TaxiNetwork.node[4] visitedPerTimestep ETV
vector 30 TaxiNetwork.node[123] visitedPerTimestep ETV
vector 31 TaxiNetwork.node[65] visitedPerTimestep ETV
vector 32 TaxiNetwork.node[61] visitedPerTimestep ETV
vector 33 TaxiNetwork.node[128] visitedPerTimestep ETV
vector 34 TaxiNetwork.node[64] visitedPerTimestep ETV
vector 35 TaxiNetwork.node[69] visitedPerTimestep ETV
vector 36 TaxiNetwork.node[143] visitedPerTimestep ETV
vector 37 TaxiNetwork.node[68] visitedPerTimestep ETV
vector 38 TaxiNetwork.node[78] visitedPerTimestep ETV
vector 39 TaxiNetwork.node[75] visitedPerTimestep ETV
vector 40 TaxiNetwork.node[70] visitedPerTimestep ETV
vector 41 TaxiNetwork.node[126] visitedPerTimestep ETV
vector 42 TaxiNetwork.node[72] visitedPerTimestep ETV
vector 43 TaxiNetwork.node[63] visitedPerTimestep ETV
vector 44 TaxiNetwork.node[110] visitedPerTimestep ETV
vector 45 TaxiNetwork.node[134] visitedPerTimestep ETV
vector 46 TaxiNetwork.node[79] visitedPerTimestep ETV
vector 47 TaxiNetwork.node[122] visitedPerTimestep ETV
vector 48 TaxiNetwork.node[132] visitedPerTimestep ETV
vector 49 TaxiNetwork.node[87] visitedPerTimestep ETV
vector 50 TaxiNetwork.node[140] visitedPerTimestep ETV
vector 51 TaxiNetwork.node[36] visitedPerTimestep ETV
vector 52 TaxiNetwork.node[20] visitedPerTimestep ETV
vector 53 TaxiNetwork.node[83] visitedPerTimestep ETV
vector 54 TaxiNetwork.node[29] visitedPerTimestep ETV
vector 55 TaxiNetwork.node[104] visitedPerTimestep ETV
vector 56 TaxiNetwork.node[94] visitedPerTimestep ETV
vector 57 TaxiNetwork.node[141] visitedPerTimestep ETV
vector 58 TaxiNetwork.node[115] visitedPerTimestep ETV
vector 59 TaxiNetwork.node[13] visitedPerTimestep ETV
vector 60 TaxiNetwork.node[89] visitedPerTimestep ETV
vector 61 TaxiNetwork.node[86] visitedPerTimestep ETV
vector 62 TaxiNetwork.node[27] visitedPerTimestep ETV
vector 63 TaxiNetwork.node[101] visitedPerTimestep ETV
vector 64 TaxiNetwork.node[35] visitedPerTimestep ETV
vector 65 TaxiNetwork.node[92] visitedPerTimestep ETV
vector 66 TaxiNetwork.node[3] visitedPerTimestep ETV
vector 67 TaxiNetwork.node[15] visitedPerTimestep ETV
vector 68 TaxiNetwork.node[2] visitedPerTimestep ETV
vector 69 TaxiNetwork.node[12] visitedPerTimestep ETV
vector 70 TaxiNetwork.node[7] visitedPerTimestep ETV
vector 71 TaxiNetwork.node[139] visitedPerTimestep ETV
vector 72 TaxiNetwork.node[18] visitedPerTimestep ETV
vector 73 TaxiNetwork.node[90] visitedPerTimestep ETV
vector 74 TaxiNetwork.node[44] visitedPerTimestep ETV
vector 75 TaxiNetwork.node[80] visitedPerTimestep ETV
vector 76 TaxiNetwork.node[95] visitedPerTimestep ETV
vector 77 TaxiNetwork.node[112] visitedPerTimestep ETV
vector 78 TaxiNetwork.node[14] visitedPerTimestep ETV
vector 79 TaxiNetwork.node[100] visitedPerTimestep ETV
vector 80 TaxiNetwork.node[58] visitedPerTimestep ETV
vector 81 TaxiNetwork.node[59] visitedPerTimestep ETV
vector 82 TaxiNetwork.node[54] visitedPerTimestep ETV
vector 83 TaxiNetwork.node[91] visitedPerTimestep ETV
vector 84 TaxiNetwork.node[93] visitedPerTimestep ETV
vector 85 TaxiNetwork.node[5] visitedPerTimestep ETV
vector 86 TaxiNetwork.node[84] visitedPerTimestep ETV
vector 87 TaxiNetwork.node[0] visitedPerTimestep ETV
vector 88 TaxiNetwork.node[52] visitedPerTimestep ETV
vector 89 TaxiNetwork.node[8] visitedPerTimestep ETV
vector 90 TaxiNetwork.node[31] visitedPerTimestep ETV
vector 91 TaxiNetwork.node[85] visitedPerTimestep ETV
vector 92 TaxiNetwork.node[24] visitedPerTimestep ETV
vector 93 TaxiNetwork.node[34] visitedPerTimestep ETV
vector 94 TaxiNetwork.node[32] visitedPerTimestep ETV
vector 95 TaxiNetwork.node[88] visitedPerTimestep ETV
vector 96 TaxiNetwork.node[10] visitedPerTimestep ETV
vector 97 TaxiNetwork.node[16] visitedPerTimestep ETV
vector 98 TaxiNetwork.node[1] visitedPerTimestep ETV
vector 99 TaxiNetwork.node[55] visitedPerTimestep ETV
vector 100 TaxiNetwork.node[102] visitedPerTimestep ETV
vector 101 TaxiNetwork.node[37] visitedPerTimestep ETV
vector 102 TaxiNetwork.node[40] visitedPerTimestep ETV
vector 103 TaxiNetwork.node[137] visitedPerTimestep ETV
vector 104 TaxiNetwork.node[131] visitedPerTimestep ETV
vector 105 TaxiNetwork.node[129] visitedPerTimestep ETV
vector 106 TaxiNetwork.node[105] visitedPerTimestep ETV
vector 107 TaxiNetwork.node[119] visitedPerTimestep ETV
vector 108 TaxiNetwork.node[133] visitedPerTimestep ETV
vector 109 TaxiNetwork.node[66] visitedPerTimestep ETV
vector 110 TaxiNetwork.node[82] visitedPerTimestep ETV
vector 111 TaxiNetwork.node[26] visitedPerTimestep ETV
vector 112 TaxiNetwork.node[28] visitedPerTimestep ETV
vector 113 TaxiNetwork.node[22] visitedPerTimestep ETV
vector 114 TaxiNetwork.node[39] visitedPerTimestep ETV
vector 115 TaxiNetwork.node[74] visitedPerTimestep ETV
vector 116 TaxiNetwork.node[108] visitedPerTimestep ETV
vector 117 TaxiNetwork.node[43] visitedPerTimestep ETV
vector 118 TaxiNetwork.node[109] visitedPerTimestep ETV
vector 119 TaxiNetwork.node[136] visitedPerTimestep ETV
vector 120 TaxiNetwork.node[51] visitedPerTimestep ETV
vector 121 TaxiNetwork.node[47] visitedPerTimestep ETV
vector 122 TaxiNetwork.node[49] visitedPerTimestep ETV
vector 123 TaxiNetwork.node[77] visitedPerTimestep ETV
vector 124 TaxiNetwork.node[73] visitedPerTimestep ETV
vector 125 TaxiNetwork.node[76] visitedPerTimestep ETV
vector 126 TaxiNetwork.node[21] visitedPerTimestep ETV
vector 127 TaxiNetwork.node[144] visitedPerTimestep ETV
vector 128 TaxiNetwork.node[127] visitedPerTimestep ETV
vector 129 TaxiNetwork.node[124] visitedPerTimestep ETV
vector 130 TaxiNetwork.node[81] visitedPerTimestep ETV
vector 131 TaxiNetwork.node[125] visitedPerTimestep ETV
vector 132 TaxiNetwork.node[107] visitedPerTimestep ETV
vector 133 TaxiNetwork.node[135] visitedPerTimestep ETV
vector 134 TaxiNetwork.node[98] visitedPerTimestep ETV
vector 135 TaxiNetwork.node[48] visitedPerTimestep ETV
vector 136 TaxiNetwork.node[50] visitedPerTimestep ETV
vector 137 TaxiNetwork.node[71] visitedPerTimestep ETV
vector 138 TaxiNetwork.node[25] visitedPerTimestep ETV
vector 139 TaxiNetwork.node[97] visitedPerTimestep ETV
0	16700 501 1 6732 0 0 40 1 144 5022 654810
1	17201 477 2 6056 0 0 38 2 144 4645 590619
2	17678 285 3 6932 0 0 23 3 144 2789 362647
3	17963 415 4 7432 0 0 33 4 144 4179 549415
4	18378 202 5 4468 0 0 17 5 143 1825 220143
5	18580 385 6 6560 0 0 31 6 144 3822 500816
6	18965 161 7 6572 0 0 13 7 144 1588 218906
7	19126 232 8 6684 0 0 19 8 144 2193 289821
8	19358 145 9 6676 0 0 12 9 144 1352 174346
9	19503 290 10 6716 0 0 23 10 144 2901 385111
10	19793 609 11 7504 0 0 45 11 144 5595 731295
11	20402 575 12 6356 0 0 43 12 144 5192 653340
12	20977 298 13 7496 0 0 22 13 144 2768 367898
13	21275 181 14 6640 0 0 14 14 144 1471 179055
14	21456 175 15 5316 0 0 13 15 143 1585 209239
15	21631 197 16 5796 0 0 15 16 143 1623 201615
16	21828 358 18 7136 0 0 27 17 144 3132 387702
17	22186 162 19 4820 0 0 12 18 143 1457 190601
18	22348 283 20 6664 0 0 21 19 144 2585 336371
19	22631 299 22 7488 0 0 22 20 144 2818 379158
20	22930 363 23 7384 0 0 27 21 144 3305 421943
21	23293 469 24 7248 0 0 35 22 144 4275 543641
22	23762 626 25 7312 0 0 46 23 144 5847 761905
23	24388 444 26 7264 0 0 33 24 144 4063 518577
24	24832 441 27 6656 0 0 33 25 144 3995 505229
25	25273 280 28 4200 0 0 21 26 143 2408 293316
26	25553 324 29 6376 0 0 24 27 144 2971 383367
27	25877 706 30 6308 0 0 52 28 144 6425 818119
28	26583 571 31 7416 0 0 42 29 144 5367 702579
29	27154 491 32 6800 0 0 36 30 144 4576 597546
30	27645 237 33 7328 0 0 18 31 144 2071 256863
31	27882 145 34 5780 0 0 11 32 143 1257 161231
32	28027 241 35 5752 0 0 18 33 143 2200 287248
33	28268 184 36 5732 0 0 14 34 143 1573 195431
34	28452 322 43 5768 0 0 24 35 143 2950 386924
35	28774 272 44 6712 0 0 20 36 144 2587 346429
36	29046 163 45 5568 0 0 12 37 143 1499 196457
37	29209 311 46 6576 0 0 23 38 144 2891 383859
38	29520 134 48 6224 0 0 10 39 144 1174 152768
39	29654 190 49 5716 0 0 14 40 143 1750 228048
40	29844 228 50 5692 0 0 17 41 143 2030 259696
41	30072 134 51 6244 0 0 10 42 144 1222 157544
42	30206 164 52 6580 0 0 12 43 144 1537 205371
43	30370 214 56 7288 0 0 16 44 144 1948 252218
44	30584 310 60 6588 0 0 23 45 144 2841 365885
45	30894 204 61 6724 0 0 15 46 144 1915 253215
46	31098 230 65 6696 0 0 17 47 144 2129 277895
47	31328 365 70 7272 0 0 27 48 144 3367 441703
48	31693 246 71 6552 0 0 18 49 144 2274 296118
49	31939 469 74 6492 0 0 35 50 144 4335 550093
50	32408 537 78 7392 0 0 40 51 144 5000 643258
51	32945 355 79 6988 0 0 26 52 144 3359 443791
52	33300 515 81 6164 0 0 38 53 144 4822 622282
53	33815 291 82 4544 0 0 22 54 143 2628 326256
54	34106 283 83 7184 0 0 21 55 144 2680 351842
55	34389 559 84 6740 0 0 41 56 144 5321 700489
56	34948 538 86 7408 0 0 40 57 144 4991 642565
57	35486 555 87 7344 0 0 41 58 144 5173 666495
58	36041 380 88 6940 0 0 28 59 144 3529 456765
59	36421 563 89 7464 0 0 42 60 144 5235 667205
60	36984 453 91 5100 0 0 34 61 143 4164 521478
61	37437 542 93 7104 0 0 40 62 144 5049 650265
62	37979 204 96 6968 0 0 15 63 144 1942 259146
63	38183 424 97 7528 0 0 31 64 145 4055 539173
64	38607 205 98 6852 0 0 15 65 144 1936 255564
65	38812 476 99 6504 0 0 35 66 144 4488 587178
66	39288 611 100 7440 0 0 45 67 144 5731 748999
67	39899 561 101 7032 0 0 41 68 144 5304 696594
68	40460 366 103 7352 0 0 27 69 144 3392 436416
69	40826 451 104 7064 0 0 33 70 144 4261 559493
70	41277 437 105 6592 0 0 33 71 144 3962 489624
71	41714 505 106 7256 0 0 37 72 144 4808 636304
72	42219 599 107 7304 0 0 44 73 144 5641 735305
73	42818 686 108 7176 0 0 50 74 144 6538 866136
74	43504 643 114 7472 0 0 47 75 144 6055 791449
75	44147 190 116 6708 0 0 14 76 144 1753 226147
76	44337 40 117 5652 0 0 3 77 143 363 46827
77	44377 150 128 7152 0 0 11 78 144 1423 187675
78	44527 369 130 6168 0 0 27 79 144 3496 458924
79	44896 450 139 6728 0 0 33 80 144 4226 550010
80	45346 80 144 3956 0 0 6 81 142 710 86340
81	45426 53 146 4860 0 0 4 82 143 467 56463
82	45479 477 149 7456 0 0 35 83 144 4529 594837
83	45956 449 152 7400 0 0 33 84 144 4202 540962
84	46405 577 157 6512 0 0 43 85 144 5293 663785
85	46982 590 160 6804 0 0 44 86 144 5452 686778
86	47572 517 162 7360 0 0 38 87 144 4872 632058
87	48089 453 170 7232 0 0 33 88 144 4338 575718
88	48542 426 177 7512 0 0 31 89 144 4076 541470
89	48968 669 180 7128 0 0 49 90 144 6334 828646
90	49637 275 182 7008 0 0 20 91 144 2631 350019
91	49912 490 184 7168 0 0 36 92 144 4649 606441
92	50402 122 200 6116 0 0 9 93 144 1145 148431
93	50524 317 201 6976 0 0 23 94 144 3053 409057
94	50841 298 202 7024 0 0 22 95 144 2836 371142
95	51139 463 212 7448 0 0 34 96 144 4426 583226
96	51602 451 221 6952 0 0 33 97 144 4309 568479
97	52053 438 222 7056 0 0 32 98 144 4187 554223
98	52491 396 235 7336 0 0 29 99 144 3797 502861
99	52887 384 239 7520 0 0 28 100 144 3660 483256
100	53271 541 259 7224 0 0 37 101 144 4732 610760
101	53812 251 269 6992 0 0 17 102 144 2206 288980
102	54063 236 272 6484 0 0 16 103 144 2109 280301
103	54299 476 281 6816 0 0 32 104 144 4283 576351
104	54775 368 287 7280 0 0 25 105 144 3313 442517
105	55143 193 292 5728 0 0 13 106 143 1699 223687
106	55336 220 310 6920 0 0 15 107 144 1922 249106
107	55556 163 311 6388 0 0 11 108 144 1503 206869
108	55719 283 324 6688 0 0 19 109 144 2562 347158
109	56002 220 325 5784 0 0 15 110 143 1964 259254
110	56222 267 398 6964 0 0 18 111 144 2431 330383
111	56489 147 419 3844 0 0 10 112 142 1290 167548
112	56636 74 423 6124 0 0 5 113 144 685 94567
113	56710 118 510 6996 0 0 8 114 144 1073 144853
114	56828 239 511 6980 0 0 16 115 144 2234 312820
115	57067 103 585 7216 0 0 7 116 144 932 124910
116	57170 28 586 588 0 0 2 117 118 235 27613
117	57198 14 587 587 0 0 1 118 118 118 13924
118	57212 14 589 589 0 0 1 119 119 119 14161
119	57226 89 954 4172 0 0 6 120 143 789 104461
120	57315 105 1136 6392 0 0 7 121 144 956 131172
121	57420 30 1140 3064 0 0 2 122 140 262 34484
122	57450 45 1142 4164 0 0 3 123 143 406 55178
123	57495 90 1482 6228 0 0 6 126 144 835 116455
124	57585 165 1488 6692 0 0 11 127 144 1523 211173
125	57750 60 1492 6232 0 0 4 128 144 544 74112
126	57810 75 1730 6468 0 0 5 131 144 678 92050
127	57885 45 2360 6924 0 0 3 136 144 423 59681
128	57930 60 2936 2996 0 0 4 137 140 552 76182
129	57990 45 2948 6720 0 0 3 137 144 424 59954
130	58035 60 2974 2994 0 0 4 138 140 556 77288
131	58095 45 2980 2990 0 0 3 139 140 419 58521
132	58140 45 2982 2992 0 0 3 140 140 420 58800
133	58185 15 3068 3068 0 0 1 140 140 140 19600
134	58200 60 3076 4180 0 0 4 141 143 567 80375
135	58260 15 3092 3092 0 0 1 142 142 142 20164
136	58275 30 3096 4168 0 0 2 142 143 285 40613
137	58305 30 3988 5544 0 0 2 143 143 286 40898
138	58335 15 4280 4280 0 0 1 143 143 143 20449
139	58350 15 7208 7208 0 0 1 144 144 144 20736

