version 3
run General-381-20250904-14:13:22-15839
attr configname General
attr datetime 20250904-14:13:22
attr datetimef 20250904-141322
attr experiment General
attr inifile omnetpp.ini
attr iterationvars ""
attr iterationvarsd ""
attr iterationvarsf ""
attr measurement ""
attr network TaxiNetwork
attr processid 15839
attr repetition 381
attr replication #381
attr resultdir results
attr runnumber 381
attr seedset 381
config network TaxiNetwork
config seed-set 381
config num-rngs 1
config sim-time-limit 10s
config repeat 500
config *.numWalkers 1
config *.enableDuplication true
config *.rc 700
config **.node[0].xCor 2933
config **.node[0].yCor 2747
config **.node[1].xCor 2919
config **.node[1].yCor 2817
config **.node[2].xCor 2910
config **.node[2].yCor 2861
config **.node[3].xCor 2429
config **.node[3].yCor 2851
config **.node[4].xCor 2908
config **.node[4].yCor 2714
config **.node[5].xCor 2606
config **.node[5].yCor 2722
config **.node[6].xCor 2575
config **.node[6].yCor 2753
config **.node[7].xCor 2654
config **.node[7].yCor 2513
config **.node[8].xCor 2773
config **.node[8].yCor 2580
config **.node[9].xCor 3043
config **.node[9].yCor 2780
config **.node[10].xCor 3020
config **.node[10].yCor 2813
config **.node[11].xCor 2599
config **.node[11].yCor 2300
config **.node[12].xCor 2917
config **.node[12].yCor 2698
config **.node[13].xCor 2625
config **.node[13].yCor 2641
config **.node[14].xCor 2604
config **.node[14].yCor 2790
config **.node[15].xCor 2786
config **.node[15].yCor 3082
config **.node[16].xCor 2603
config **.node[16].yCor 2802
config **.node[17].xCor 2637
config **.node[17].yCor 2869
config **.node[18].xCor 2675
config **.node[18].yCor 2955
config **.node[19].xCor 2845
config **.node[19].yCor 2937
config **.node[20].xCor 2860
config **.node[20].yCor 2888
config **.node[21].xCor 2843
config **.node[21].yCor 4158
config **.node[22].xCor 2852
config **.node[22].yCor 4017
config **.node[23].xCor 2892
config **.node[23].yCor 4961
config **.node[24].xCor 2313
config **.node[24].yCor 3993
config **.node[25].xCor 2891
config **.node[25].yCor 4959
config **.node[26].xCor 2370
config **.node[26].yCor 4050
config **.node[27].xCor 2788
config **.node[27].yCor 3958
config **.node[28].xCor 2819
config **.node[28].yCor 4428
config **.node[29].xCor 2790
config **.node[29].yCor 3761
config **.node[30].xCor 2809
config **.node[30].yCor 2908
config **.node[31].xCor 2919
config **.node[31].yCor 3575
config **.node[32].xCor 2946
config **.node[32].yCor 3466
config **.node[33].xCor 2911
config **.node[33].yCor 3453
config **.node[34].xCor 2370
config **.node[34].yCor 3656
config **.node[35].xCor 2438
config **.node[35].yCor 3738
config **.node[36].xCor 2737
config **.node[36].yCor 3570
config **.node[37].xCor 2921
config **.node[37].yCor 3698
config **.node[38].xCor 2907
config **.node[38].yCor 5197
config **.node[39].xCor 2860
config **.node[39].yCor 3852
config **.node[40].xCor 2927
config **.node[40].yCor 3684
config **.node[41].xCor 3023
config **.node[41].yCor 5313
config **.node[42].xCor 3220
config **.node[42].yCor 5811
config **.node[43].xCor 3432
config **.node[43].yCor 5715
config **.node[44].xCor 2754
config **.node[44].yCor 2463
config **.node[45].xCor 2646
config **.node[45].yCor 2673
config **.node[46].xCor 3051
config **.node[46].yCor 2792
config **.node[47].xCor 1666
config **.node[47].yCor 3697
config **.node[48].xCor 1662
config **.node[48].yCor 3694
config **.node[49].xCor 1664
config **.node[49].yCor 3667
config **.node[50].xCor 1660
config **.node[50].yCor 3664
config **.node[51].xCor 1710
config **.node[51].yCor 3573
config **.node[52].xCor 2082
config **.node[52].yCor 2650
config **.node[53].xCor 2086
config **.node[53].yCor 2657
config **.node[54].xCor 2257
config **.node[54].yCor 3232
config **.node[55].xCor 2258
config **.node[55].yCor 3225
config **.node[56].xCor 1926
config **.node[56].yCor 2570
config **.node[57].xCor 1926
config **.node[57].yCor 2576
config **.node[58].xCor 2104
config **.node[58].yCor 1758
config **.node[59].xCor 1957
config **.node[59].yCor 1826
config **.node[60].xCor 3473
config **.node[60].yCor 1523
config **.node[61].xCor 3335
config **.node[61].yCor 1726
config **.node[62].xCor 3478
config **.node[62].yCor 1517
config **.node[63].xCor 3386
config **.node[63].yCor 2119
config **.node[64].xCor 3474
config **.node[64].yCor 1762
config **.node[65].xCor 3797
config **.node[65].yCor 2099
config **.node[66].xCor 3642
config **.node[66].yCor 2136
config **.node[67].xCor 3481
config **.node[67].yCor 2334
config **.node[68].xCor 3088
config **.node[68].yCor 1505
config **.node[69].xCor 3037
config **.node[69].yCor 1693
config **.node[70].xCor 3026
config **.node[70].yCor 1700
config **.node[71].xCor 3019
config **.node[71].yCor 669
config **.node[72].xCor 3513
config **.node[72].yCor 1358
config **.node[73].xCor 3545
config **.node[73].yCor 1230
config **.node[74].xCor 4228
config **.node[74].yCor 4220
config **.node[75].xCor 3379
config **.node[75].yCor 1207
config **.node[76].xCor 3596
config **.node[76].yCor 963
config **.node[77].xCor 3637
config **.node[77].yCor 1188
config **.node[78].xCor 3759
config **.node[78].yCor 1030
config **.node[79].xCor 2918
config **.node[79].yCor 1455
config **.node[80].xCor 2711
config **.node[80].yCor 1297
config **.node[81].xCor 439
config **.node[81].yCor 1623
config **.node[82].xCor 2857
config **.node[82].yCor 3581
config **.node[83].xCor 2858
config **.node[83].yCor 3584
config **.node[84].xCor 2999
config **.node[84].yCor 2636
config **.node[85].xCor 2905
config **.node[85].yCor 2778
config **.node[86].xCor 2653
config **.node[86].yCor 2845
config **.node[87].xCor 2864
config **.node[87].yCor 2836
config **.node[88].xCor 2426
config **.node[88].yCor 2892
config **.node[89].xCor 2964
config **.node[89].yCor 2804
config **.node[90].xCor 2586
config **.node[90].yCor 3135
config **.node[91].xCor 2864
config **.node[91].yCor 2980
config **.node[92].xCor 2527
config **.node[92].yCor 3219
config **.node[93].xCor 2863
config **.node[93].yCor 3142
config **.node[94].xCor 2485
config **.node[94].yCor 3269
config **.node[95].xCor 2653
config **.node[95].yCor 1065
config **.node[96].xCor 4062
config **.node[96].yCor 400
config **.node[97].xCor 5762
config **.node[97].yCor 3023
config **.node[98].xCor 1414
config **.node[98].yCor 3461
config **.node[99].xCor 2911
config **.node[99].yCor 1737
config **.node[100].xCor 2595
config **.node[100].yCor 2299
config **.node[101].xCor 2702
config **.node[101].yCor 3419
config **.node[102].xCor 2813
config **.node[102].yCor 3307
config **.node[103].xCor 2638
config **.node[103].yCor 2258
config **.node[104].xCor 2590
config **.node[104].yCor 3125
config **.node[105].xCor 1856
config **.node[105].yCor 2990
config **.node[106].xCor 1894
config **.node[106].yCor 2239
config **.node[107].xCor 383
config **.node[107].yCor 1251
config **.node[108].xCor 3447
config **.node[108].yCor 5489
config **.node[109].xCor 3450
config **.node[109].yCor 5697
config **.node[110].xCor 2719
config **.node[110].yCor 1920
config **.node[111].xCor 2085
config **.node[111].yCor 2389
config **.node[112].xCor 1910
config **.node[112].yCor 2548
config **.node[113].xCor 2069
config **.node[113].yCor 2050
config **.node[114].xCor 2184
config **.node[114].yCor 2209
config **.node[115].xCor 2278
config **.node[115].yCor 2390
config **.node[116].xCor 2249
config **.node[116].yCor 2299
config **.node[117].xCor 2356
config **.node[117].yCor 2303
config **.node[118].xCor 2192
config **.node[118].yCor 2475
config **.node[119].xCor 1720
config **.node[119].yCor 2911
config **.node[120].xCor 2400
config **.node[120].yCor 2887
config **.node[121].xCor 3344
config **.node[121].yCor 1890
config **.node[122].xCor 3136
config **.node[122].yCor 2418
config **.node[123].xCor 3243
config **.node[123].yCor 2525
config **.node[124].xCor 2396
config **.node[124].yCor 1267
config **.node[125].xCor 467
config **.node[125].yCor 1875
config **.node[126].xCor 3506
config **.node[126].yCor 1221
config **.node[127].xCor 1034
config **.node[127].yCor 1474
config **.node[128].xCor 2908
config **.node[128].yCor 1784
config **.node[129].xCor 2876
config **.node[129].yCor 1761
config **.node[130].xCor 2849
config **.node[130].yCor 1795
config **.node[131].xCor 3029
config **.node[131].yCor 1859
config **.node[132].xCor 2924
config **.node[132].yCor 1848
config **.node[133].xCor 3493
config **.node[133].yCor 1559
config **.node[134].xCor 2760
config **.node[134].yCor 1761
config **.node[135].xCor 1644
config **.node[135].yCor 3755
config **.node[136].xCor 1463
config **.node[136].yCor 3432
config **.node[137].xCor 2595
config **.node[137].yCor 2849
config **.node[138].xCor 2581
config **.node[138].yCor 2867
config **.node[139].xCor 2524
config **.node[139].yCor 2911
config **.node[140].xCor 2570
config **.node[140].yCor 2924
config **.node[141].xCor 2676
config **.node[141].yCor 2890
config **.node[142].xCor 2666
config **.node[142].yCor 2876
config **.node[143].xCor 3735
config **.node[143].yCor 1726
config **.node[144].xCor 1637
config **.node[144].yCor 3438

vector 0 TaxiNetwork.node[10] visitedPerTimestep ETV
vector 1 TaxiNetwork.node[12] visitedPerTimestep ETV
vector 2 TaxiNetwork.node[100] visitedPerTimestep ETV
vector 3 TaxiNetwork.node[85] visitedPerTimestep ETV
vector 4 TaxiNetwork.node[2] visitedPerTimestep ETV
vector 5 TaxiNetwork.node[46] visitedPerTimestep ETV
vector 6 TaxiNetwork.node[6] visitedPerTimestep ETV
vector 7 TaxiNetwork.node[138] visitedPerTimestep ETV
vector 8 TaxiNetwork.node[45] visitedPerTimestep ETV
vector 9 TaxiNetwork.node[19] visitedPerTimestep ETV
vector 10 TaxiNetwork.node[13] visitedPerTimestep ETV
vector 11 TaxiNetwork.node[15] visitedPerTimestep ETV
vector 12 TaxiNetwork.node[93] visitedPerTimestep ETV
vector 13 TaxiNetwork.node[104] visitedPerTimestep ETV
vector 14 TaxiNetwork.node[141] visitedPerTimestep ETV
vector 15 TaxiNetwork.node[90] visitedPerTimestep ETV
vector 16 TaxiNetwork.node[32] visitedPerTimestep ETV
vector 17 TaxiNetwork.node[83] visitedPerTimestep ETV
vector 18 TaxiNetwork.node[82] visitedPerTimestep ETV
vector 19 TaxiNetwork.node[33] visitedPerTimestep ETV
vector 20 TaxiNetwork.node[89] visitedPerTimestep ETV
vector 21 TaxiNetwork.node[11] visitedPerTimestep ETV
vector 22 TaxiNetwork.node[118] visitedPerTimestep ETV
vector 23 TaxiNetwork.node[17] visitedPerTimestep ETV
vector 24 TaxiNetwork.node[16] visitedPerTimestep ETV
vector 25 TaxiNetwork.node[142] visitedPerTimestep ETV
vector 26 TaxiNetwork.node[103] visitedPerTimestep ETV
vector 27 TaxiNetwork.node[1] visitedPerTimestep ETV
vector 28 TaxiNetwork.node[86] visitedPerTimestep ETV
vector 29 TaxiNetwork.node[5] visitedPerTimestep ETV
vector 30 TaxiNetwork.node[7] visitedPerTimestep ETV
vector 31 TaxiNetwork.node[117] visitedPerTimestep ETV
vector 32 TaxiNetwork.node[3] visitedPerTimestep ETV
vector 33 TaxiNetwork.node[44] visitedPerTimestep ETV
vector 34 TaxiNetwork.node[30] visitedPerTimestep ETV
vector 35 TaxiNetwork.node[20] visitedPerTimestep ETV
vector 36 TaxiNetwork.node[84] visitedPerTimestep ETV
vector 37 TaxiNetwork.node[4] visitedPerTimestep ETV
vector 38 TaxiNetwork.node[88] visitedPerTimestep ETV
vector 39 TaxiNetwork.node[137] visitedPerTimestep ETV
vector 40 TaxiNetwork.node[55] visitedPerTimestep ETV
vector 41 TaxiNetwork.node[94] visitedPerTimestep ETV
vector 42 TaxiNetwork.node[122] visitedPerTimestep ETV
vector 43 TaxiNetwork.node[66] visitedPerTimestep ETV
vector 44 TaxiNetwork.node[60] visitedPerTimestep ETV
vector 45 TaxiNetwork.node[126] visitedPerTimestep ETV
vector 46 TaxiNetwork.node[69] visitedPerTimestep ETV
vector 47 TaxiNetwork.node[143] visitedPerTimestep ETV
vector 48 TaxiNetwork.node[77] visitedPerTimestep ETV
vector 49 TaxiNetwork.node[64] visitedPerTimestep ETV
vector 50 TaxiNetwork.node[68] visitedPerTimestep ETV
vector 51 TaxiNetwork.node[79] visitedPerTimestep ETV
vector 52 TaxiNetwork.node[70] visitedPerTimestep ETV
vector 53 TaxiNetwork.node[129] visitedPerTimestep ETV
vector 54 TaxiNetwork.node[132] visitedPerTimestep ETV
vector 55 TaxiNetwork.node[54] visitedPerTimestep ETV
vector 56 TaxiNetwork.node[139] visitedPerTimestep ETV
vector 57 TaxiNetwork.node[29] visitedPerTimestep ETV
vector 58 TaxiNetwork.node[74] visitedPerTimestep ETV
vector 59 TaxiNetwork.node[109] visitedPerTimestep ETV
vector 60 TaxiNetwork.node[108] visitedPerTimestep ETV
vector 61 TaxiNetwork.node[43] visitedPerTimestep ETV
vector 62 TaxiNetwork.node[41] visitedPerTimestep ETV
vector 63 TaxiNetwork.node[38] visitedPerTimestep ETV
vector 64 TaxiNetwork.node[25] visitedPerTimestep ETV
vector 65 TaxiNetwork.node[23] visitedPerTimestep ETV
vector 66 TaxiNetwork.node[42] visitedPerTimestep ETV
vector 67 TaxiNetwork.node[28] visitedPerTimestep ETV
vector 68 TaxiNetwork.node[22] visitedPerTimestep ETV
vector 69 TaxiNetwork.node[34] visitedPerTimestep ETV
vector 70 TaxiNetwork.node[39] visitedPerTimestep ETV
vector 71 TaxiNetwork.node[87] visitedPerTimestep ETV
vector 72 TaxiNetwork.node[91] visitedPerTimestep ETV
vector 73 TaxiNetwork.node[14] visitedPerTimestep ETV
vector 74 TaxiNetwork.node[134] visitedPerTimestep ETV
vector 75 TaxiNetwork.node[131] visitedPerTimestep ETV
vector 76 TaxiNetwork.node[63] visitedPerTimestep ETV
vector 77 TaxiNetwork.node[78] visitedPerTimestep ETV
vector 78 TaxiNetwork.node[75] visitedPerTimestep ETV
vector 79 TaxiNetwork.node[73] visitedPerTimestep ETV
vector 80 TaxiNetwork.node[133] visitedPerTimestep ETV
vector 81 TaxiNetwork.node[72] visitedPerTimestep ETV
vector 82 TaxiNetwork.node[130] visitedPerTimestep ETV
vector 83 TaxiNetwork.node[80] visitedPerTimestep ETV
vector 84 TaxiNetwork.node[110] visitedPerTimestep ETV
vector 85 TaxiNetwork.node[115] visitedPerTimestep ETV
vector 86 TaxiNetwork.node[123] visitedPerTimestep ETV
vector 87 TaxiNetwork.node[140] visitedPerTimestep ETV
vector 88 TaxiNetwork.node[8] visitedPerTimestep ETV
vector 89 TaxiNetwork.node[92] visitedPerTimestep ETV
vector 90 TaxiNetwork.node[18] visitedPerTimestep ETV
vector 91 TaxiNetwork.node[116] visitedPerTimestep ETV
vector 92 TaxiNetwork.node[99] visitedPerTimestep ETV
vector 93 TaxiNetwork.node[128] visitedPerTimestep ETV
vector 94 TaxiNetwork.node[61] visitedPerTimestep ETV
vector 95 TaxiNetwork.node[127] visitedPerTimestep ETV
vector 96 TaxiNetwork.node[65] visitedPerTimestep ETV
vector 97 TaxiNetwork.node[114] visitedPerTimestep ETV
vector 98 TaxiNetwork.node[53] visitedPerTimestep ETV
vector 99 TaxiNetwork.node[56] visitedPerTimestep ETV
vector 100 TaxiNetwork.node[120] visitedPerTimestep ETV
vector 101 TaxiNetwork.node[102] visitedPerTimestep ETV
vector 102 TaxiNetwork.node[0] visitedPerTimestep ETV
vector 103 TaxiNetwork.node[9] visitedPerTimestep ETV
vector 104 TaxiNetwork.node[62] visitedPerTimestep ETV
vector 105 TaxiNetwork.node[52] visitedPerTimestep ETV
vector 106 TaxiNetwork.node[57] visitedPerTimestep ETV
vector 107 TaxiNetwork.node[35] visitedPerTimestep ETV
vector 108 TaxiNetwork.node[101] visitedPerTimestep ETV
vector 109 TaxiNetwork.node[31] visitedPerTimestep ETV
vector 110 TaxiNetwork.node[37] visitedPerTimestep ETV
vector 111 TaxiNetwork.node[27] visitedPerTimestep ETV
vector 112 TaxiNetwork.node[36] visitedPerTimestep ETV
vector 113 TaxiNetwork.node[26] visitedPerTimestep ETV
vector 114 TaxiNetwork.node[40] visitedPerTimestep ETV
vector 115 TaxiNetwork.node[51] visitedPerTimestep ETV
vector 116 TaxiNetwork.node[98] visitedPerTimestep ETV
vector 117 TaxiNetwork.node[49] visitedPerTimestep ETV
vector 118 TaxiNetwork.node[47] visitedPerTimestep ETV
vector 119 TaxiNetwork.node[136] visitedPerTimestep ETV
vector 120 TaxiNetwork.node[50] visitedPerTimestep ETV
vector 121 TaxiNetwork.node[113] visitedPerTimestep ETV
vector 122 TaxiNetwork.node[111] visitedPerTimestep ETV
vector 123 TaxiNetwork.node[67] visitedPerTimestep ETV
vector 124 TaxiNetwork.node[24] visitedPerTimestep ETV
vector 125 TaxiNetwork.node[105] visitedPerTimestep ETV
vector 126 TaxiNetwork.node[135] visitedPerTimestep ETV
vector 127 TaxiNetwork.node[144] visitedPerTimestep ETV
vector 128 TaxiNetwork.node[121] visitedPerTimestep ETV
vector 129 TaxiNetwork.node[59] visitedPerTimestep ETV
vector 130 TaxiNetwork.node[106] visitedPerTimestep ETV
vector 131 TaxiNetwork.node[119] visitedPerTimestep ETV
vector 132 TaxiNetwork.node[112] visitedPerTimestep ETV
vector 133 TaxiNetwork.node[97] visitedPerTimestep ETV
vector 134 TaxiNetwork.node[21] visitedPerTimestep ETV
vector 135 TaxiNetwork.node[58] visitedPerTimestep ETV
vector 136 TaxiNetwork.node[124] visitedPerTimestep ETV
vector 137 TaxiNetwork.node[48] visitedPerTimestep ETV
0	1	0	1
0	5	0	4
0	289	0	101
0	542	0	123
0	626	0	124
0	630	0	124
0	691	0	124
0	925	0	132
0	1050	0	132
0	1072	0	132
0	1102	0	132
0	1124	0	133
0	1186	0	133
0	1316	0	135
0	1350	0	136
0	1484	0	137
0	1488	0	137
0	1610	0	140
0	1660	0	140
0	1830	0	140
0	1918	0	140
0	2248	0	140
0	2286	0	140
1	2	0	2
1	66	0	42
1	195	0	71
1	293	0	101
1	318	0	103
1	332	0	104
1	358	0	105
1	371	0	107
1	387	0	107
1	444	0	115
1	546	0	123
1	661	0	124
1	696	0	124
1	836	0	128
1	904	0	132
1	966	0	132
1	1026	0	132
1	1112	0	133
1	1230	0	133
1	1482	0	137
1	1624	0	140
1	1872	0	140
1	2522	0	140
2	3	0	3
2	432	0	114
2	499	0	121
2	575	0	123
2	656	0	124
2	692	0	124
2	868	0	129
2	1108	0	133
2	1292	0	135
2	1302	0	135
2	1728	0	140
2	1964	0	140
2	1976	0	140
2	2478	0	140
2	2486	0	140
2	2492	0	140
2	2664	0	140
2	2676	0	140
2	2942	0	140
2	2950	0	140
3	4	0	4
3	13	0	11
3	48	0	36
3	50	0	36
3	241	0	86
3	255	0	91
3	307	0	103
3	359	0	105
3	418	0	114
3	482	0	121
3	512	0	123
3	543	0	123
3	574	0	123
3	582	0	123
3	587	0	123
3	603	0	123
3	631	0	124
3	862	0	129
3	908	0	132
3	940	0	132
3	1150	0	133
3	1352	0	136
3	1374	0	136
3	1568	0	140
3	1668	0	140
3	2704	0	140
3	2794	0	140
3	2944	0	140
3	3084	0	144
4	6	0	5
4	49	0	36
4	351	0	105
4	393	0	107
4	429	0	114
4	458	0	115
4	592	0	123
4	694	0	124
4	1246	0	133
4	1384	0	136
4	1502	0	138
4	1514	0	138
4	1828	0	140
4	1856	0	140
4	2210	0	140
4	2326	0	140
4	2720	0	140
5	7	0	6
5	374	0	107
5	452	0	115
5	513	0	123
5	597	0	123
5	679	0	124
5	698	0	124
5	735	0	124
5	865	0	129
5	922	0	132
5	924	0	132
5	931	0	132
5	1130	0	133
5	1270	0	135
5	1286	0	135
5	1290	0	135
5	1536	0	138
5	1718	0	140
5	1772	0	140
5	2654	0	140
5	2862	0	140
5	2866	0	140
5	2904	0	140
6	8	0	7
6	39	0	31
6	375	0	107
6	379	0	107
6	386	0	107
6	579	0	123
6	637	0	124
6	677	0	124
6	693	0	124
6	765	0	124
6	800	0	128
6	807	0	128
6	963	0	132
6	1210	0	133
6	1376	0	136
6	1566	0	140
6	1696	0	140
6	1784	0	140
6	1982	0	140
6	2310	0	140
6	2442	0	140
6	2604	0	140
6	2650	0	140
6	2702	0	140
6	2708	0	140
6	2744	0	140
6	2846	0	140
7	9	0	8
7	197	0	72
7	246	0	88
7	257	0	91
7	368	0	107
7	520	0	123
7	562	0	123
7	573	0	123
7	581	0	123
7	717	0	124
7	719	0	124
7	729	0	124
7	1046	0	132
7	1284	0	135
7	1330	0	135
7	1698	0	140
7	1800	0	140
7	1870	0	140
7	2018	0	140
7	2198	0	140
7	2284	0	140
7	2328	0	140
7	2698	0	140
7	2800	0	140
7	2884	0	140
7	2902	0	140
7	2910	0	140
8	10	0	9
8	65	0	42
8	244	0	87
8	262	0	92
8	364	0	106
8	589	0	123
8	867	0	129
8	903	0	132
8	905	0	132
8	941	0	132
8	1052	0	132
8	1212	0	133
8	1446	0	137
8	1564	0	139
8	1664	0	140
8	2282	0	140
8	2288	0	140
8	2428	0	140
8	2658	0	140
8	2718	0	140
8	2908	0	140
8	3048	0	143
9	11	0	10
9	37	0	31
9	62	0	41
9	306	0	103
9	480	0	121
9	494	0	121
9	533	0	123
9	697	0	124
9	738	0	124
9	1022	0	132
9	1032	0	132
9	1140	0	133
9	1268	0	135
9	1358	0	136
9	1370	0	136
9	1464	0	137
9	1510	0	138
9	2526	0	140
9	2798	0	140
10	12	0	11
10	17	0	14
10	25	0	21
10	86	0	55
10	291	0	101
10	296	0	102
10	360	0	105
10	493	0	121
10	528	0	123
10	564	0	123
10	613	0	124
10	701	0	124
10	825	0	128
10	896	0	131
10	1060	0	132
10	1264	0	135
10	1306	0	135
10	1326	0	135
10	1400	0	137
10	1570	0	140
10	1724	0	140
10	1814	0	140
10	2302	0	140
11	14	0	12
11	64	0	42
11	198	0	72
11	292	0	101
11	301	0	103
11	370	0	107
11	435	0	114
11	441	0	115
11	519	0	123
11	566	0	123
11	583	0	123
11	585	0	123
11	747	0	124
11	749	0	124
11	764	0	124
11	784	0	125
11	821	0	128
11	839	0	128
11	878	0	129
11	927	0	132
11	929	0	132
11	932	0	132
11	934	0	132
11	1152	0	133
11	1226	0	133
11	1252	0	134
11	1468	0	137
11	1544	0	138
11	1858	0	140
11	2230	0	140
11	2270	0	140
11	2296	0	140
11	2348	0	140
11	2606	0	140
11	2832	0	140
11	2920	0	140
12	15	0	13
12	33	0	28
12	443	0	115
12	476	0	121
12	495	0	121
12	567	0	123
12	824	0	128
12	866	0	129
12	883	0	129
12	917	0	132
12	955	0	132
12	993	0	132
12	1008	0	132
12	1170	0	133
12	1204	0	133
12	1388	0	136
12	1518	0	138
12	1620	0	140
12	1628	0	140
12	1768	0	140
12	1796	0	140
12	2174	0	140
12	2246	0	140
12	2366	0	140
12	2548	0	140
12	2748	0	140
12	2900	0	140
13	16	0	14
13	328	0	104
13	430	0	114
13	460	0	115
13	504	0	123
13	700	0	124
13	724	0	124
13	726	0	124
13	736	0	124
13	742	0	124
13	757	0	124
13	808	0	128
13	954	0	132
13	965	0	132
13	983	0	132
13	1010	0	132
13	1182	0	133
13	1240	0	133
13	1410	0	137
13	1582	0	140
13	1604	0	140
13	1648	0	140
13	1804	0	140
13	1820	0	140
13	1984	0	140
13	2226	0	140
13	2318	0	140
13	2888	0	140
14	18	0	15
14	90	0	55
14	190	0	71
14	330	0	104
14	454	0	115
14	576	0	123
14	594	0	123
14	744	0	124
14	841	0	128
14	943	0	132
14	953	0	132
14	1054	0	132
14	1066	0	132
14	1160	0	133
14	1296	0	135
14	1300	0	135
14	1332	0	135
14	1486	0	137
14	1884	0	140
14	2000	0	140
14	2014	0	140
14	2138	0	140
14	2188	0	140
14	2398	0	140
14	2466	0	140
14	2550	0	140
14	2608	0	140
15	19	0	16
15	45	0	35
15	52	0	37
15	95	0	57
15	256	0	91
15	304	0	103
15	350	0	105
15	577	0	123
15	618	0	124
15	743	0	124
15	783	0	125
15	822	0	128
15	877	0	129
15	939	0	132
15	1118	0	133
15	1348	0	136
15	1402	0	137
15	1444	0	137
15	1612	0	140
15	2172	0	140
15	2184	0	140
15	2256	0	140
15	2324	0	140
15	2706	0	140
15	2710	0	140
15	2830	0	140
16	20	0	17
16	326	0	104
16	424	0	114
16	486	0	121
16	541	0	123
16	619	0	124
16	741	0	124
16	823	0	128
16	829	0	128
16	974	0	132
16	1176	0	133
16	1314	0	135
16	1492	0	137
16	1678	0	140
16	1818	0	140
16	1834	0	140
16	2178	0	140
16	2432	0	140
17	21	0	18
17	97	0	58
17	188	0	71
17	413	0	114
17	464	0	115
17	477	0	121
17	518	0	123
17	522	0	123
17	775	0	125
17	935	0	132
17	979	0	132
17	1254	0	134
17	1910	0	140
17	2238	0	140
17	2372	0	140
17	2386	0	140
17	2412	0	140
17	2808	0	140
18	22	0	19
18	414	0	114
18	523	0	123
18	774	0	125
18	981	0	132
18	1034	0	132
18	1038	0	132
18	1198	0	133
18	1470	0	137
18	1674	0	140
18	2368	0	140
18	2544	0	140
18	2754	0	140
18	2762	0	140
18	2812	0	140
18	2820	0	140
18	2834	0	140
18	2934	0	140
19	23	0	20
19	408	0	112
19	485	0	121
19	515	0	123
19	586	0	123
19	659	0	124
19	737	0	124
19	776	0	125
19	804	0	128
19	894	0	131
19	994	0	132
19	1364	0	136
19	1682	0	140
19	1798	0	140
19	1914	0	140
19	2244	0	140
19	2380	0	140
19	2400	0	140
19	2734	0	140
19	2750	0	140
19	2806	0	140
20	24	0	21
20	199	0	72
20	295	0	102
20	321	0	103
20	356	0	105
20	514	0	123
20	604	0	123
20	636	0	124
20	828	0	128
20	882	0	129
20	919	0	132
20	1244	0	133
20	1266	0	135
20	1520	0	138
20	1662	0	140
20	1966	0	140
20	2700	0	140
20	2912	0	140
20	2916	0	140
20	2930	0	140
20	2940	0	140
21	26	0	22
21	84	0	55
21	263	0	92
21	352	0	105
21	391	0	107
21	447	0	115
21	509	0	123
21	511	0	123
21	539	0	123
21	547	0	123
21	558	0	123
21	561	0	123
21	639	0	124
21	670	0	124
21	686	0	124
21	755	0	124
21	909	0	132
21	1098	0	132
21	1106	0	132
21	1136	0	133
21	1148	0	133
21	1188	0	133
21	1508	0	138
21	1638	0	140
21	1658	0	140
21	1778	0	140
21	1790	0	140
21	2506	0	140
21	2766	0	140
21	3036	0	142
22	27	0	23
22	87	0	55
22	498	0	121
22	685	0	124
22	721	0	124
22	752	0	124
22	890	0	131
22	899	0	132
22	972	0	132
22	1556	0	138
22	2200	0	140
22	2454	0	140
22	2610	0	140
22	3044	0	143
22	3060	0	143
23	28	0	24
23	61	0	41
23	201	0	72
23	417	0	114
23	497	0	121
23	601	0	123
23	616	0	124
23	633	0	124
23	687	0	124
23	720	0	124
23	745	0	124
23	967	0	132
23	1006	0	132
23	1020	0	132
23	1274	0	135
23	1308	0	135
23	1412	0	137
23	1480	0	137
23	1588	0	140
23	1826	0	140
23	2156	0	140
23	2434	0	140
23	2860	0	140
23	2880	0	140
23	2914	0	140
23	3092	0	144
24	29	0	25
24	193	0	71
24	203	0	73
24	206	0	74
24	436	0	114
24	556	0	123
24	623	0	124
24	688	0	124
24	704	0	124
24	799	0	128
24	826	0	128
24	923	0	132
24	1466	0	137
24	1594	0	140
24	1722	0	140
24	1732	0	140
24	1762	0	140
24	1874	0	140
24	1894	0	140
24	1902	0	140
24	2142	0	140
24	2272	0	140
24	2360	0	140
24	2722	0	140
24	2728	0	140
24	3072	0	143
25	30	0	26
25	85	0	55
25	251	0	89
25	394	0	107
25	532	0	123
25	595	0	123
25	658	0	124
25	660	0	124
25	669	0	124
25	728	0	124
25	739	0	124
25	831	0	128
25	946	0	132
25	1218	0	133
25	1272	0	135
25	1294	0	135
25	1530	0	138
25	1634	0	140
25	1770	0	140
25	1986	0	140
25	2168	0	140
25	2436	0	140
26	31	0	27
26	88	0	55
26	208	0	74
26	250	0	89
26	316	0	103
26	389	0	107
26	560	0	123
26	572	0	123
26	796	0	128
26	842	0	128
26	859	0	129
26	971	0	132
26	1062	0	132
26	1110	0	133
26	1276	0	135
26	1344	0	136
26	1432	0	137
26	2026	0	140
26	2136	0	140
26	2502	0	140
26	2560	0	140
26	2782	0	140
26	2924	0	140
26	3052	0	143
27	32	0	28
27	38	0	31
27	55	0	38
27	240	0	86
27	354	0	105
27	396	0	107
27	545	0	123
27	662	0	124
27	681	0	124
27	695	0	124
27	778	0	125
27	827	0	128
27	830	0	128
27	832	0	128
27	1016	0	132
27	1068	0	132
27	1122	0	133
27	1222	0	133
27	1282	0	135
27	1572	0	140
27	1824	0	140
27	1860	0	140
27	2150	0	140
27	2350	0	140
27	2490	0	140
27	2656	0	140
27	2792	0	140
27	2948	0	140
28	34	0	29
28	433	0	114
28	453	0	115
28	628	0	124
28	665	0	124
28	705	0	124
28	876	0	129
28	933	0	132
28	949	0	132
28	1044	0	132
28	1312	0	135
28	1452	0	137
28	1458	0	137
28	1558	0	138
28	1630	0	140
28	1702	0	140
28	1832	0	140
28	1868	0	140
28	2316	0	140
28	2320	0	140
28	2424	0	140
28	2430	0	140
28	2740	0	140
29	35	0	30
29	56	0	38
29	67	0	42
29	92	0	56
29	239	0	86
29	242	0	86
29	308	0	103
29	419	0	114
29	491	0	121
29	571	0	123
29	625	0	124
29	676	0	124
29	678	0	124
29	891	0	131
29	906	0	132
29	918	0	132
29	998	0	132
29	1070	0	132
29	1146	0	133
29	1280	0	135
29	1636	0	140
29	1788	0	140
29	2022	0	140
29	2196	0	140
29	2206	0	140
29	2426	0	140
29	2484	0	140
29	2520	0	140
29	2786	0	140
29	2872	0	140
29	2918	0	140
30	36	0	31
30	194	0	71
30	207	0	74
30	249	0	89
30	259	0	91
30	299	0	103
30	383	0	107
30	552	0	123
30	557	0	123
30	588	0	123
30	663	0	124
30	702	0	124
30	716	0	124
30	892	0	131
30	1168	0	133
30	1322	0	135
30	1606	0	140
30	1622	0	140
30	1626	0	140
30	1640	0	140
30	1780	0	140
30	1886	0	140
30	1898	0	140
30	1924	0	140
30	2278	0	140
30	2344	0	140
30	2364	0	140
30	2438	0	140
30	2652	0	140
30	2696	0	140
30	2726	0	140
30	2738	0	140
31	40	0	32
31	42	0	33
31	260	0	91
31	331	0	104
31	531	0	123
31	559	0	123
31	666	0	124
31	959	0	132
31	1426	0	137
31	2464	0	140
31	2472	0	140
31	2476	0	140
31	2716	0	140
31	2856	0	140
32	41	0	33
32	47	0	36
32	59	0	40
32	192	0	71
32	526	0	123
32	635	0	124
32	733	0	124
32	810	0	128
32	960	0	132
32	990	0	132
32	1104	0	132
32	1340	0	136
32	1448	0	137
32	1554	0	138
32	1598	0	140
32	1650	0	140
32	1666	0	140
32	1852	0	140
32	1928	0	140
32	2012	0	140
32	2446	0	140
32	2552	0	140
33	43	0	34
33	376	0	107
33	434	0	114
33	551	0	123
33	570	0	123
33	634	0	124
33	645	0	124
33	712	0	124
33	715	0	124
33	869	0	129
33	1156	0	133
33	1378	0	136
33	1450	0	137
33	1456	0	137
33	1526	0	138
33	1632	0	140
33	2280	0	140
33	2418	0	140
33	2598	0	140
33	3040	0	143
34	44	0	35
34	427	0	114
34	706	0	124
34	727	0	124
34	734	0	124
34	860	0	129
34	920	0	132
34	1214	0	133
34	1224	0	133
34	1232	0	133
34	1304	0	135
34	1362	0	136
34	1504	0	138
34	1538	0	138
34	1616	0	140
34	1854	0	140
34	2232	0	140
34	2440	0	140
34	2546	0	140
34	2600	0	140
34	2732	0	140
34	2764	0	140
35	46	0	36
35	53	0	37
35	189	0	71
35	385	0	107
35	402	0	109
35	425	0	114
35	438	0	114
35	456	0	115
35	463	0	115
35	590	0	123
35	689	0	124
35	819	0	128
35	910	0	132
35	962	0	132
35	1120	0	133
35	1248	0	133
35	1356	0	136
35	1592	0	140
35	1730	0	140
35	1808	0	140
35	1896	0	140
35	1972	0	140
35	2152	0	140
35	2194	0	140
35	2208	0	140
35	2290	0	140
35	2358	0	140
35	2378	0	140
35	2524	0	140
35	2936	0	140
36	51	0	37
36	322	0	103
36	461	0	115
36	632	0	124
36	646	0	124
36	671	0	124
36	884	0	129
36	1338	0	136
36	1454	0	137
36	1580	0	140
36	1586	0	140
36	1866	0	140
36	2020	0	140
36	2558	0	140
36	2746	0	140
36	2768	0	140
37	54	0	38
37	204	0	73
37	377	0	107
37	388	0	107
37	550	0	123
37	599	0	123
37	672	0	124
37	682	0	124
37	690	0	124
37	863	0	129
37	907	0	132
37	970	0	132
37	1004	0	132
37	1506	0	138
37	1642	0	140
37	1774	0	140
37	1888	0	140
37	1920	0	140
37	2016	0	140
37	2352	0	140
37	2488	0	140
37	2554	0	140
37	2662	0	140
37	2796	0	140
37	2928	0	140
38	57	0	39
38	457	0	115
38	479	0	121
38	481	0	121
38	544	0	123
38	565	0	123
38	642	0	124
38	709	0	124
38	875	0	129
38	885	0	129
38	1000	0	132
38	1058	0	132
38	1194	0	133
38	1262	0	135
38	1336	0	136
38	1422	0	137
38	1792	0	140
38	1802	0	140
38	1862	0	140
38	2212	0	140
38	2858	0	140
38	3056	0	143
38	3088	0	144
39	58	0	40
39	89	0	55
39	290	0	101
39	324	0	103
39	355	0	105
39	446	0	115
39	455	0	115
39	578	0	123
39	627	0	124
39	657	0	124
39	699	0	124
39	707	0	124
39	751	0	124
39	779	0	125
39	874	0	129
39	1144	0	133
39	1654	0	140
39	1706	0	140
39	1810	0	140
39	1822	0	140
39	1978	0	140
39	2298	0	140
39	2376	0	140
39	2452	0	140
39	2804	0	140
40	60	0	41
40	93	0	56
40	442	0	115
40	475	0	121
40	489	0	121
40	948	0	132
40	964	0	132
40	980	0	132
40	997	0	132
40	1116	0	133
40	1704	0	140
40	1882	0	140
40	2146	0	140
40	2166	0	140
40	2228	0	140
40	2422	0	140
40	2616	0	140
40	2668	0	140
40	2814	0	140
41	63	0	42
41	200	0	72
41	305	0	103
41	349	0	105
41	401	0	109
41	428	0	114
41	483	0	121
41	487	0	121
41	527	0	123
41	675	0	124
41	766	0	124
41	802	0	128
41	817	0	128
41	916	0	132
41	947	0	132
41	1220	0	133
41	1310	0	135
41	1334	0	135
41	1354	0	136
41	1442	0	137
41	1516	0	138
41	1540	0	138
41	1546	0	138
41	1550	0	138
41	1844	0	140
41	1988	0	140
41	2190	0	140
41	2828	0	140
41	2874	0	140
42	68	0	43
42	282	0	97
42	309	0	103
42	323	0	103
42	333	0	104
42	347	0	105
42	392	0	107
42	437	0	114
42	451	0	115
42	600	0	123
42	606	0	123
42	873	0	129
42	1028	0	132
42	1512	0	138
42	1956	0	140
42	2602	0	140
43	69	0	44
43	281	0	97
43	310	0	103
43	850	0	128
43	871	0	129
43	2966	0	140
44	70	0	45
44	338	0	105
44	344	0	105
44	449	0	115
44	856	0	129
44	1084	0	132
44	2040	0	140
44	2062	0	140
44	2102	0	140
44	2110	0	140
44	2580	0	140
44	2684	0	140
44	2956	0	140
44	2986	0	140
44	2990	0	140
45	71	0	46
45	73	0	47
45	210	0	74
45	215	0	75
45	224	0	77
45	231	0	81
45	844	0	128
45	2064	0	140
45	3008	0	140
46	72	0	47
46	218	0	75
46	345	0	105
46	843	0	128
46	1092	0	132
46	2114	0	140
46	2120	0	140
46	2124	0	140
46	2586	0	140
47	74	0	48
47	76	0	49
47	217	0	75
47	223	0	77
47	226	0	78
47	1088	0	132
47	2034	0	140
47	2058	0	140
47	2128	0	140
47	2584	0	140
47	2962	0	140
47	2988	0	140
47	3016	0	140
48	75	0	49
48	77	0	49
48	216	0	75
48	846	0	128
48	2104	0	140
48	2130	0	140
48	2578	0	140
48	2998	0	140
49	78	0	50
49	220	0	75
49	227	0	78
49	233	0	82
49	272	0	94
49	311	0	103
49	651	0	124
49	1076	0	132
49	1938	0	140
49	2080	0	140
49	2132	0	140
49	2688	0	140
50	79	0	51
50	211	0	74
50	267	0	93
50	2042	0	140
50	2074	0	140
50	2122	0	140
50	2690	0	140
50	2778	0	140
50	2954	0	140
50	2976	0	140
51	80	0	52
51	214	0	75
51	1950	0	140
51	2038	0	140
51	2046	0	140
51	2078	0	140
51	2568	0	140
51	2594	0	140
51	2686	0	140
51	2774	0	140
51	2994	0	140
52	81	0	53
52	209	0	74
52	213	0	75
52	853	0	128
52	1754	0	140
52	1942	0	140
52	2030	0	140
52	2086	0	140
52	2092	0	140
52	2500	0	140
53	82	0	54
53	219	0	75
53	266	0	93
53	268	0	93
53	340	0	105
53	653	0	124
53	854	0	128
53	2134	0	140
53	2678	0	140
53	2692	0	140
54	83	0	55
54	236	0	84
54	275	0	95
54	278	0	96
54	536	0	123
54	655	0	124
54	857	0	129
54	1940	0	140
54	1962	0	140
54	2112	0	140
54	2596	0	140
54	2974	0	140
54	3024	0	140
55	91	0	56
55	422	0	114
55	465	0	115
55	492	0	121
55	708	0	124
55	781	0	125
55	785	0	125
55	938	0	132
55	999	0	132
55	1206	0	133
55	1394	0	137
55	1552	0	138
55	2144	0	140
55	2160	0	140
55	2252	0	140
55	2374	0	140
55	2402	0	140
55	2640	0	140
56	94	0	57
56	191	0	71
56	300	0	103
56	303	0	103
56	353	0	105
56	423	0	114
56	488	0	121
56	540	0	123
56	602	0	123
56	611	0	124
56	673	0	124
56	912	0	132
56	915	0	132
56	951	0	132
56	1002	0	132
56	1114	0	133
56	1324	0	135
56	1578	0	140
56	1590	0	140
56	2004	0	140
56	2276	0	140
56	2332	0	140
56	2408	0	140
56	2416	0	140
56	2644	0	140
56	2788	0	140
56	2906	0	140
56	3068	0	143
57	96	0	58
57	410	0	112
57	759	0	124
57	763	0	124
57	767	0	124
57	879	0	129
57	985	0	132
57	988	0	132
57	1180	0	133
57	1496	0	138
57	1542	0	138
58	98	0	59
58	164	0	67
58	170	0	67
58	731	0	124
58	1472	0	137
58	1476	0	137
58	2932	0	140
59	99	0	60
59	102	0	62
59	127	0	67
59	144	0	67
59	146	0	67
59	158	0	67
59	160	0	67
59	163	0	67
59	165	0	67
60	100	0	61
60	120	0	67
60	123	0	67
60	126	0	67
60	133	0	67
60	136	0	67
60	145	0	67
60	147	0	67
60	156	0	67
60	162	0	67
60	169	0	67
60	171	0	67
61	101	0	62
61	121	0	67
61	157	0	67
61	166	0	67
61	168	0	67
62	103	0	63
62	105	0	64
62	108	0	65
62	110	0	66
62	113	0	66
62	116	0	66
62	122	0	67
62	125	0	67
62	129	0	67
62	135	0	67
62	138	0	67
62	141	0	67
62	143	0	67
62	151	0	67
62	159	0	67
62	167	0	67
62	172	0	67
62	177	0	67
62	179	0	67
62	181	0	67
63	104	0	64
63	107	0	65
63	111	0	66
63	115	0	66
63	118	0	66
63	132	0	67
63	134	0	67
63	140	0	67
63	148	0	67
63	150	0	67
63	153	0	67
63	155	0	67
63	173	0	67
63	175	0	67
64	106	0	65
64	114	0	66
64	117	0	66
64	131	0	67
64	142	0	67
64	152	0	67
64	174	0	67
64	183	0	67
65	109	0	66
65	112	0	66
65	130	0	67
65	154	0	67
65	178	0	67
65	182	0	67
66	119	0	67
66	124	0	67
66	128	0	67
66	137	0	67
66	139	0	67
66	149	0	67
66	161	0	67
66	176	0	67
66	180	0	67
67	184	0	68
68	185	0	69
68	814	0	128
68	1908	0	140
68	2530	0	140
68	2760	0	140
68	2838	0	140
69	186	0	70
69	399	0	108
69	404	0	110
69	984	0	132
69	986	0	132
69	1846	0	140
69	2266	0	140
69	2512	0	140
69	2810	0	140
69	2826	0	140
70	187	0	71
70	409	0	112
70	517	0	123
70	770	0	124
70	772	0	124
70	805	0	128
70	815	0	128
70	977	0	132
70	1178	0	133
70	1366	0	136
70	1906	0	140
70	2236	0	140
70	2382	0	140
70	2390	0	140
70	2516	0	140
70	2752	0	140
70	2896	0	140
71	196	0	72
71	416	0	114
71	459	0	115
71	548	0	123
71	569	0	123
71	580	0	123
71	730	0	124
71	740	0	124
71	893	0	131
71	950	0	132
71	956	0	132
71	1042	0	132
71	1100	0	132
71	1434	0	137
71	1600	0	140
71	1892	0	140
71	1974	0	140
71	2304	0	140
72	202	0	73
72	302	0	103
72	384	0	107
72	462	0	115
72	549	0	123
72	553	0	123
72	568	0	123
72	591	0	123
72	622	0	124
72	624	0	124
72	703	0	124
72	732	0	124
72	746	0	124
72	782	0	125
72	803	0	128
72	834	0	128
72	930	0	132
72	945	0	132
72	1024	0	132
72	1128	0	133
72	1528	0	138
72	1602	0	140
72	1646	0	140
72	1916	0	140
72	2158	0	140
72	2186	0	140
72	2354	0	140
72	2362	0	140
72	2878	0	140
72	2882	0	140
72	2946	0	140
73	205	0	74
73	320	0	103
73	362	0	105
73	369	0	107
73	373	0	107
73	378	0	107
73	445	0	115
73	506	0	123
73	593	0	123
73	605	0	123
73	609	0	124
73	801	0	128
73	818	0	128
73	926	0	132
73	961	0	132
73	991	0	132
73	1048	0	132
73	1138	0	133
73	1288	0	135
73	1320	0	135
73	1386	0	136
73	1424	0	137
73	1438	0	137
73	1522	0	138
73	1532	0	138
73	1700	0	140
73	1806	0	140
73	2254	0	140
73	2292	0	140
73	3080	0	144
74	212	0	75
74	265	0	93
74	313	0	103
74	315	0	103
74	510	0	123
74	1094	0	132
74	2072	0	140
74	2474	0	140
74	2562	0	140
74	2952	0	140
75	221	0	76
75	274	0	95
75	337	0	105
75	346	0	105
75	714	0	124
75	851	0	128
75	1958	0	140
75	2068	0	140
75	2084	0	140
75	2496	0	140
75	2592	0	140
75	2682	0	140
75	2772	0	140
75	2780	0	140
76	222	0	77
76	271	0	94
76	334	0	104
76	450	0	115
76	535	0	123
76	848	0	128
76	1946	0	140
76	1954	0	140
76	2056	0	140
76	2082	0	140
76	2958	0	140
76	3028	0	140
77	225	0	78
78	228	0	79
78	2060	0	140
78	2090	0	140
78	2566	0	140
78	2992	0	140
79	229	0	80
79	1090	0	132
79	2036	0	140
79	3000	0	140
80	230	0	81
80	279	0	96
80	1948	0	140
80	2498	0	140
80	2980	0	140
81	232	0	82
81	2066	0	140
81	2576	0	140
81	2776	0	140
81	2996	0	140
82	234	0	83
82	270	0	94
82	277	0	96
82	342	0	105
82	390	0	107
82	654	0	124
82	713	0	124
82	2028	0	140
82	2076	0	140
82	2588	0	140
83	235	0	84
83	2070	0	140
84	237	0	85
84	283	0	97
84	537	0	123
84	1756	0	140
84	2680	0	140
84	2694	0	140
85	238	0	86
85	797	0	128
85	1192	0	133
85	1328	0	135
85	1418	0	137
85	1596	0	140
85	1742	0	140
85	1760	0	140
85	1782	0	140
85	2468	0	140
85	2504	0	140
86	243	0	87
86	317	0	103
86	319	0	103
86	372	0	107
86	395	0	107
86	534	0	123
86	608	0	124
86	629	0	124
86	870	0	129
86	1064	0	132
86	1126	0	133
86	1158	0	133
86	1890	0	140
86	1900	0	140
86	1922	0	140
86	1934	0	140
86	2784	0	140
87	245	0	88
87	247	0	88
87	258	0	91
87	563	0	123
87	612	0	124
87	617	0	124
87	643	0	124
87	674	0	124
87	684	0	124
87	780	0	125
87	795	0	128
87	809	0	128
87	881	0	129
87	942	0	132
87	968	0	132
87	973	0	132
87	1012	0	132
87	1018	0	132
87	1134	0	133
87	1342	0	136
87	1500	0	138
87	1656	0	140
87	1716	0	140
87	1816	0	140
87	1836	0	140
87	1880	0	140
87	2002	0	140
87	2148	0	140
87	2736	0	140
87	2926	0	140
87	3064	0	143
88	248	0	89
88	252	0	89
88	381	0	107
88	426	0	114
88	496	0	121
88	503	0	123
88	644	0	124
88	667	0	124
88	722	0	124
88	1030	0	132
88	1228	0	133
88	1436	0	137
88	1560	0	138
88	1574	0	140
88	1644	0	140
88	1720	0	140
88	1876	0	140
88	2154	0	140
88	2470	0	140
88	2556	0	140
88	3076	0	144
89	253	0	90
89	288	0	101
89	415	0	114
89	525	0	123
89	554	0	123
89	621	0	124
89	680	0	124
89	833	0	128
89	837	0	128
89	936	0	132
89	944	0	132
89	989	0	132
89	1040	0	132
89	1196	0	133
89	1234	0	133
89	1256	0	134
89	1298	0	135
89	1490	0	137
89	1684	0	140
89	1838	0	140
89	2250	0	140
89	2274	0	140
89	2306	0	140
89	2322	0	140
89	2410	0	140
89	2642	0	140
89	2864	0	140
89	2870	0	140
89	3096	0	144
90	254	0	91
90	297	0	102
90	478	0	121
90	524	0	123
90	615	0	124
90	638	0	124
90	835	0	128
90	921	0	132
90	937	0	132
90	1154	0	133
90	1260	0	134
90	1382	0	136
90	1462	0	137
90	1608	0	140
90	1776	0	140
90	1850	0	140
90	1970	0	140
90	1998	0	140
90	2140	0	140
90	2164	0	140
90	2414	0	140
90	2420	0	140
90	2508	0	140
90	2660	0	140
91	261	0	92
91	365	0	106
91	664	0	124
91	2010	0	140
91	2312	0	140
91	2330	0	140
91	2742	0	140
92	264	0	93
92	341	0	105
92	448	0	115
92	858	0	129
92	1080	0	132
92	1096	0	132
92	1752	0	140
92	1944	0	140
92	1952	0	140
92	2094	0	140
92	2098	0	140
92	2108	0	140
92	2494	0	140
92	3032	0	141
93	269	0	94
93	312	0	103
93	314	0	103
93	343	0	105
93	652	0	124
93	852	0	128
93	1078	0	132
93	2100	0	140
93	2116	0	140
93	2570	0	140
94	273	0	95
94	649	0	124
94	845	0	128
94	2032	0	140
94	2088	0	140
94	2106	0	140
94	2972	0	140
94	2978	0	140
94	2984	0	140
94	3012	0	140
94	3020	0	140
95	276	0	96
96	280	0	97
96	335	0	104
96	2582	0	140
96	2960	0	140
96	2968	0	140
97	284	0	98
97	420	0	114
97	711	0	124
97	754	0	124
97	1726	0	140
97	1746	0	140
97	1926	0	140
97	2202	0	140
97	2216	0	140
97	2220	0	140
97	2848	0	140
98	285	0	99
98	380	0	107
98	421	0	114
98	490	0	121
98	502	0	123
98	529	0	123
98	614	0	124
98	668	0	124
98	793	0	128
98	1056	0	132
98	1278	0	135
98	1346	0	136
98	1430	0	137
98	2024	0	140
98	2214	0	140
98	2224	0	140
98	2456	0	140
98	2460	0	140
98	2480	0	140
98	2670	0	140
98	2852	0	140
99	286	0	100
99	2462	0	140
100	287	0	101
100	357	0	105
100	367	0	107
100	431	0	114
100	640	0	124
100	723	0	124
100	794	0	128
100	861	0	129
100	897	0	131
100	911	0	132
100	914	0	132
100	958	0	132
100	969	0	132
100	1164	0	133
100	1258	0	134
100	1420	0	137
100	1440	0	137
100	1766	0	140
100	1968	0	140
100	2162	0	140
100	2444	0	140
100	2674	0	140
100	2712	0	140
100	2724	0	140
100	2922	0	140
101	294	0	102
101	327	0	104
101	397	0	107
101	439	0	114
101	484	0	121
101	521	0	123
101	555	0	123
101	610	0	124
101	683	0	124
101	718	0	124
101	777	0	125
101	806	0	128
101	811	0	128
101	895	0	131
101	1172	0	133
101	1208	0	133
101	1216	0	133
101	1398	0	137
101	1498	0	138
101	1534	0	138
101	1614	0	140
101	1652	0	140
101	1670	0	140
101	1842	0	140
101	2294	0	140
101	2394	0	140
101	2406	0	140
101	2518	0	140
101	2730	0	140
101	2790	0	140
102	298	0	103
102	329	0	104
102	348	0	105
102	361	0	105
102	596	0	123
102	820	0	128
102	1014	0	132
102	1184	0	133
102	1242	0	133
102	1584	0	140
102	1930	0	140
102	2052	0	140
102	2308	0	140
102	2346	0	140
103	325	0	104
103	598	0	123
103	620	0	124
103	647	0	124
103	750	0	124
103	992	0	132
103	1132	0	133
103	1142	0	133
103	1162	0	133
103	1166	0	133
103	1250	0	134
103	1318	0	135
103	1380	0	136
103	1864	0	140
103	1878	0	140
103	2170	0	140
103	2868	0	140
103	2886	0	140
104	336	0	105
104	339	0	105
104	847	0	128
104	1960	0	140
104	2044	0	140
104	2118	0	140
104	2126	0	140
104	2572	0	140
104	2590	0	140
104	2964	0	140
104	2970	0	140
104	2982	0	140
104	3004	0	140
105	363	0	106
105	382	0	107
105	505	0	123
105	756	0	124
105	798	0	128
105	902	0	132
105	913	0	132
105	952	0	132
105	1414	0	137
105	1460	0	137
105	1562	0	138
105	1576	0	140
105	1786	0	140
105	2204	0	140
105	2300	0	140
105	2314	0	140
105	2450	0	140
105	2666	0	140
106	366	0	107
106	641	0	124
106	710	0	124
106	753	0	124
106	2006	0	140
106	2334	0	140
106	2482	0	140
106	2648	0	140
107	398	0	108
107	407	0	112
107	725	0	124
107	761	0	124
107	978	0	132
107	982	0	132
107	995	0	132
107	1200	0	133
107	1236	0	133
107	1404	0	137
107	1408	0	137
107	1692	0	140
107	2182	0	140
107	2258	0	140
107	2384	0	140
107	2532	0	140
107	2536	0	140
107	2540	0	140
107	2816	0	140
107	3100	0	145
108	400	0	109
108	762	0	124
108	957	0	132
108	975	0	132
108	996	0	132
108	1372	0	136
108	1392	0	136
108	1478	0	137
108	1694	0	140
108	1708	0	140
108	1712	0	140
108	1764	0	140
108	1794	0	140
108	1904	0	140
108	1980	0	140
108	1990	0	140
108	2356	0	140
108	2396	0	140
108	2404	0	140
108	2510	0	140
108	2528	0	140
108	2802	0	140
108	2844	0	140
108	2938	0	140
109	403	0	110
109	584	0	123
109	816	0	128
109	928	0	132
109	1360	0	136
109	1368	0	136
109	1390	0	136
109	1548	0	138
109	1618	0	140
109	1680	0	140
109	2176	0	140
109	2180	0	140
109	2192	0	140
109	2840	0	140
110	405	0	111
110	748	0	124
110	769	0	124
110	813	0	128
110	838	0	128
110	976	0	132
110	1202	0	133
110	1672	0	140
110	1840	0	140
110	1992	0	140
110	2240	0	140
110	2262	0	140
110	2268	0	140
110	2756	0	140
110	2824	0	140
110	2892	0	140
111	406	0	112
111	771	0	124
111	1406	0	137
111	1690	0	140
111	1912	0	140
111	2242	0	140
111	2392	0	140
111	2538	0	140
111	2842	0	140
112	411	0	113
112	840	0	128
112	880	0	129
112	1036	0	132
112	1396	0	137
112	1686	0	140
112	1710	0	140
112	1714	0	140
112	1848	0	140
112	1996	0	140
112	2234	0	140
112	2370	0	140
112	2514	0	140
112	2876	0	140
112	2890	0	140
112	2898	0	140
113	412	0	114
113	760	0	124
113	2260	0	140
113	2388	0	140
113	2542	0	140
113	2822	0	140
113	2836	0	140
113	2894	0	140
114	440	0	115
114	516	0	123
114	758	0	124
114	768	0	124
114	812	0	128
114	1174	0	133
114	1238	0	133
114	1688	0	140
114	2264	0	140
115	466	0	116
115	474	0	121
115	791	0	128
115	2618	0	140
116	467	0	117
116	2632	0	140
117	468	0	118
117	471	0	120
117	473	0	121
117	2622	0	140
118	469	0	119
118	790	0	128
119	470	0	120
119	787	0	126
119	2620	0	140
120	472	0	121
120	2624	0	140
120	2628	0	140
121	500	0	122
121	508	0	123
121	530	0	123
121	538	0	123
121	887	0	129
121	901	0	132
121	1190	0	133
121	1738	0	140
121	2854	0	140
122	501	0	123
122	507	0	123
122	886	0	129
122	1428	0	137
122	1524	0	138
122	1734	0	140
122	1812	0	140
122	2342	0	140
122	2448	0	140
122	2636	0	140
122	2646	0	140
123	607	0	124
123	648	0	124
123	650	0	124
123	849	0	128
123	864	0	129
123	872	0	129
123	1074	0	132
123	1932	0	140
123	2050	0	140
123	2054	0	140
123	2770	0	140
124	773	0	125
124	987	0	132
124	2758	0	140
125	786	0	126
125	792	0	128
125	2614	0	140
126	788	0	127
126	2626	0	140
127	789	0	128
128	855	0	129
128	1082	0	132
128	1086	0	132
128	1936	0	140
128	2048	0	140
128	2564	0	140
128	2574	0	140
129	888	0	130
129	900	0	132
129	1744	0	140
129	2340	0	140
130	889	0	131
130	1740	0	140
130	2222	0	140
130	2338	0	140
130	2850	0	140
131	898	0	132
131	2336	0	140
131	2612	0	140
131	2634	0	140
131	2638	0	140
132	1416	0	137
132	2008	0	140
132	2458	0	140
132	2672	0	140
132	2714	0	140
133	1474	0	137
134	1494	0	138
134	1676	0	140
134	1994	0	140
134	2534	0	140
134	2818	0	140
135	1736	0	140
135	1748	0	140
135	1758	0	140
135	2218	0	140
136	1750	0	140
136	2096	0	140
137	2630	0	140

