file 47717 1756984393                                           
version 3
run General-53-20250904-14:13:13-15278
attr configname General
attr datetime 20250904-14:13:13
attr datetimef 20250904-141313
attr experiment General
attr inifile omnetpp.ini
attr iterationvars ""
attr iterationvarsd ""
attr iterationvarsf ""
attr measurement ""
attr network TaxiNetwork
attr processid 15278
attr repetition 53
attr replication #53
attr resultdir results
attr runnumber 53
attr seedset 53
config network TaxiNetwork
config seed-set 53
config num-rngs 1
config sim-time-limit 10s
config repeat 500
config *.numWalkers 1
config *.enableDuplication true
config *.rc 700
config **.node[0].xCor 2933
config **.node[0].yCor 2747
config **.node[1].xCor 2919
config **.node[1].yCor 2817
config **.node[2].xCor 2910
config **.node[2].yCor 2861
config **.node[3].xCor 2429
config **.node[3].yCor 2851
config **.node[4].xCor 2908
config **.node[4].yCor 2714
config **.node[5].xCor 2606
config **.node[5].yCor 2722
config **.node[6].xCor 2575
config **.node[6].yCor 2753
config **.node[7].xCor 2654
config **.node[7].yCor 2513
config **.node[8].xCor 2773
config **.node[8].yCor 2580
config **.node[9].xCor 3043
config **.node[9].yCor 2780
config **.node[10].xCor 3020
config **.node[10].yCor 2813
config **.node[11].xCor 2599
config **.node[11].yCor 2300
config **.node[12].xCor 2917
config **.node[12].yCor 2698
config **.node[13].xCor 2625
config **.node[13].yCor 2641
config **.node[14].xCor 2604
config **.node[14].yCor 2790
config **.node[15].xCor 2786
config **.node[15].yCor 3082
config **.node[16].xCor 2603
config **.node[16].yCor 2802
config **.node[17].xCor 2637
config **.node[17].yCor 2869
config **.node[18].xCor 2675
config **.node[18].yCor 2955
config **.node[19].xCor 2845
config **.node[19].yCor 2937
config **.node[20].xCor 2860
config **.node[20].yCor 2888
config **.node[21].xCor 2843
config **.node[21].yCor 4158
config **.node[22].xCor 2852
config **.node[22].yCor 4017
config **.node[23].xCor 2892
config **.node[23].yCor 4961
config **.node[24].xCor 2313
config **.node[24].yCor 3993
config **.node[25].xCor 2891
config **.node[25].yCor 4959
config **.node[26].xCor 2370
config **.node[26].yCor 4050
config **.node[27].xCor 2788
config **.node[27].yCor 3958
config **.node[28].xCor 2819
config **.node[28].yCor 4428
config **.node[29].xCor 2790
config **.node[29].yCor 3761
config **.node[30].xCor 2809
config **.node[30].yCor 2908
config **.node[31].xCor 2919
config **.node[31].yCor 3575
config **.node[32].xCor 2946
config **.node[32].yCor 3466
config **.node[33].xCor 2911
config **.node[33].yCor 3453
config **.node[34].xCor 2370
config **.node[34].yCor 3656
config **.node[35].xCor 2438
config **.node[35].yCor 3738
config **.node[36].xCor 2737
config **.node[36].yCor 3570
config **.node[37].xCor 2921
config **.node[37].yCor 3698
config **.node[38].xCor 2907
config **.node[38].yCor 5197
config **.node[39].xCor 2860
config **.node[39].yCor 3852
config **.node[40].xCor 2927
config **.node[40].yCor 3684
config **.node[41].xCor 3023
config **.node[41].yCor 5313
config **.node[42].xCor 3220
config **.node[42].yCor 5811
config **.node[43].xCor 3432
config **.node[43].yCor 5715
config **.node[44].xCor 2754
config **.node[44].yCor 2463
config **.node[45].xCor 2646
config **.node[45].yCor 2673
config **.node[46].xCor 3051
config **.node[46].yCor 2792
config **.node[47].xCor 1666
config **.node[47].yCor 3697
config **.node[48].xCor 1662
config **.node[48].yCor 3694
config **.node[49].xCor 1664
config **.node[49].yCor 3667
config **.node[50].xCor 1660
config **.node[50].yCor 3664
config **.node[51].xCor 1710
config **.node[51].yCor 3573
config **.node[52].xCor 2082
config **.node[52].yCor 2650
config **.node[53].xCor 2086
config **.node[53].yCor 2657
config **.node[54].xCor 2257
config **.node[54].yCor 3232
config **.node[55].xCor 2258
config **.node[55].yCor 3225
config **.node[56].xCor 1926
config **.node[56].yCor 2570
config **.node[57].xCor 1926
config **.node[57].yCor 2576
config **.node[58].xCor 2104
config **.node[58].yCor 1758
config **.node[59].xCor 1957
config **.node[59].yCor 1826
config **.node[60].xCor 3473
config **.node[60].yCor 1523
config **.node[61].xCor 3335
config **.node[61].yCor 1726
config **.node[62].xCor 3478
config **.node[62].yCor 1517
config **.node[63].xCor 3386
config **.node[63].yCor 2119
config **.node[64].xCor 3474
config **.node[64].yCor 1762
config **.node[65].xCor 3797
config **.node[65].yCor 2099
config **.node[66].xCor 3642
config **.node[66].yCor 2136
config **.node[67].xCor 3481
config **.node[67].yCor 2334
config **.node[68].xCor 3088
config **.node[68].yCor 1505
config **.node[69].xCor 3037
config **.node[69].yCor 1693
config **.node[70].xCor 3026
config **.node[70].yCor 1700
config **.node[71].xCor 3019
config **.node[71].yCor 669
config **.node[72].xCor 3513
config **.node[72].yCor 1358
config **.node[73].xCor 3545
config **.node[73].yCor 1230
config **.node[74].xCor 4228
config **.node[74].yCor 4220
config **.node[75].xCor 3379
config **.node[75].yCor 1207
config **.node[76].xCor 3596
config **.node[76].yCor 963
config **.node[77].xCor 3637
config **.node[77].yCor 1188
config **.node[78].xCor 3759
config **.node[78].yCor 1030
config **.node[79].xCor 2918
config **.node[79].yCor 1455
config **.node[80].xCor 2711
config **.node[80].yCor 1297
config **.node[81].xCor 439
config **.node[81].yCor 1623
config **.node[82].xCor 2857
config **.node[82].yCor 3581
config **.node[83].xCor 2858
config **.node[83].yCor 3584
config **.node[84].xCor 2999
config **.node[84].yCor 2636
config **.node[85].xCor 2905
config **.node[85].yCor 2778
config **.node[86].xCor 2653
config **.node[86].yCor 2845
config **.node[87].xCor 2864
config **.node[87].yCor 2836
config **.node[88].xCor 2426
config **.node[88].yCor 2892
config **.node[89].xCor 2964
config **.node[89].yCor 2804
config **.node[90].xCor 2586
config **.node[90].yCor 3135
config **.node[91].xCor 2864
config **.node[91].yCor 2980
config **.node[92].xCor 2527
config **.node[92].yCor 3219
config **.node[93].xCor 2863
config **.node[93].yCor 3142
config **.node[94].xCor 2485
config **.node[94].yCor 3269
config **.node[95].xCor 2653
config **.node[95].yCor 1065
config **.node[96].xCor 4062
config **.node[96].yCor 400
config **.node[97].xCor 5762
config **.node[97].yCor 3023
config **.node[98].xCor 1414
config **.node[98].yCor 3461
config **.node[99].xCor 2911
config **.node[99].yCor 1737
config **.node[100].xCor 2595
config **.node[100].yCor 2299
config **.node[101].xCor 2702
config **.node[101].yCor 3419
config **.node[102].xCor 2813
config **.node[102].yCor 3307
config **.node[103].xCor 2638
config **.node[103].yCor 2258
config **.node[104].xCor 2590
config **.node[104].yCor 3125
config **.node[105].xCor 1856
config **.node[105].yCor 2990
config **.node[106].xCor 1894
config **.node[106].yCor 2239
config **.node[107].xCor 383
config **.node[107].yCor 1251
config **.node[108].xCor 3447
config **.node[108].yCor 5489
config **.node[109].xCor 3450
config **.node[109].yCor 5697
config **.node[110].xCor 2719
config **.node[110].yCor 1920
config **.node[111].xCor 2085
config **.node[111].yCor 2389
config **.node[112].xCor 1910
config **.node[112].yCor 2548
config **.node[113].xCor 2069
config **.node[113].yCor 2050
config **.node[114].xCor 2184
config **.node[114].yCor 2209
config **.node[115].xCor 2278
config **.node[115].yCor 2390
config **.node[116].xCor 2249
config **.node[116].yCor 2299
config **.node[117].xCor 2356
config **.node[117].yCor 2303
config **.node[118].xCor 2192
config **.node[118].yCor 2475
config **.node[119].xCor 1720
config **.node[119].yCor 2911
config **.node[120].xCor 2400
config **.node[120].yCor 2887
config **.node[121].xCor 3344
config **.node[121].yCor 1890
config **.node[122].xCor 3136
config **.node[122].yCor 2418
config **.node[123].xCor 3243
config **.node[123].yCor 2525
config **.node[124].xCor 2396
config **.node[124].yCor 1267
config **.node[125].xCor 467
config **.node[125].yCor 1875
config **.node[126].xCor 3506
config **.node[126].yCor 1221
config **.node[127].xCor 1034
config **.node[127].yCor 1474
config **.node[128].xCor 2908
config **.node[128].yCor 1784
config **.node[129].xCor 2876
config **.node[129].yCor 1761
config **.node[130].xCor 2849
config **.node[130].yCor 1795
config **.node[131].xCor 3029
config **.node[131].yCor 1859
config **.node[132].xCor 2924
config **.node[132].yCor 1848
config **.node[133].xCor 3493
config **.node[133].yCor 1559
config **.node[134].xCor 2760
config **.node[134].yCor 1761
config **.node[135].xCor 1644
config **.node[135].yCor 3755
config **.node[136].xCor 1463
config **.node[136].yCor 3432
config **.node[137].xCor 2595
config **.node[137].yCor 2849
config **.node[138].xCor 2581
config **.node[138].yCor 2867
config **.node[139].xCor 2524
config **.node[139].yCor 2911
config **.node[140].xCor 2570
config **.node[140].yCor 2924
config **.node[141].xCor 2676
config **.node[141].yCor 2890
config **.node[142].xCor 2666
config **.node[142].yCor 2876
config **.node[143].xCor 3735
config **.node[143].yCor 1726
config **.node[144].xCor 1637
config **.node[144].yCor 3438

vector 0 TaxiNetwork.node[53] visitedPerTimestep ETV
vector 1 TaxiNetwork.node[114] visitedPerTimestep ETV
vector 2 TaxiNetwork.node[113] visitedPerTimestep ETV
vector 3 TaxiNetwork.node[58] visitedPerTimestep ETV
vector 4 TaxiNetwork.node[115] visitedPerTimestep ETV
vector 5 TaxiNetwork.node[110] visitedPerTimestep ETV
vector 6 TaxiNetwork.node[132] visitedPerTimestep ETV
vector 7 TaxiNetwork.node[99] visitedPerTimestep ETV
vector 8 TaxiNetwork.node[79] visitedPerTimestep ETV
vector 9 TaxiNetwork.node[69] visitedPerTimestep ETV
vector 10 TaxiNetwork.node[129] visitedPerTimestep ETV
vector 11 TaxiNetwork.node[61] visitedPerTimestep ETV
vector 12 TaxiNetwork.node[67] visitedPerTimestep ETV
vector 13 TaxiNetwork.node[65] visitedPerTimestep ETV
vector 14 TaxiNetwork.node[143] visitedPerTimestep ETV
vector 15 TaxiNetwork.node[63] visitedPerTimestep ETV
vector 16 TaxiNetwork.node[68] visitedPerTimestep ETV
vector 17 TaxiNetwork.node[103] visitedPerTimestep ETV
vector 18 TaxiNetwork.node[17] visitedPerTimestep ETV
vector 19 TaxiNetwork.node[33] visitedPerTimestep ETV
vector 20 TaxiNetwork.node[141] visitedPerTimestep ETV
vector 21 TaxiNetwork.node[118] visitedPerTimestep ETV
vector 22 TaxiNetwork.node[57] visitedPerTimestep ETV
vector 23 TaxiNetwork.node[52] visitedPerTimestep ETV
vector 24 TaxiNetwork.node[100] visitedPerTimestep ETV
vector 25 TaxiNetwork.node[12] visitedPerTimestep ETV
vector 26 TaxiNetwork.node[91] visitedPerTimestep ETV
vector 27 TaxiNetwork.node[88] visitedPerTimestep ETV
vector 28 TaxiNetwork.node[30] visitedPerTimestep ETV
vector 29 TaxiNetwork.node[5] visitedPerTimestep ETV
vector 30 TaxiNetwork.node[86] visitedPerTimestep ETV
vector 31 TaxiNetwork.node[93] visitedPerTimestep ETV
vector 32 TaxiNetwork.node[9] visitedPerTimestep ETV
vector 33 TaxiNetwork.node[137] visitedPerTimestep ETV
vector 34 TaxiNetwork.node[139] visitedPerTimestep ETV
vector 35 TaxiNetwork.node[13] visitedPerTimestep ETV
vector 36 TaxiNetwork.node[85] visitedPerTimestep ETV
vector 37 TaxiNetwork.node[8] visitedPerTimestep ETV
vector 38 TaxiNetwork.node[106] visitedPerTimestep ETV
vector 39 TaxiNetwork.node[116] visitedPerTimestep ETV
vector 40 TaxiNetwork.node[117] visitedPerTimestep ETV
vector 41 TaxiNetwork.node[15] visitedPerTimestep ETV
vector 42 TaxiNetwork.node[102] visitedPerTimestep ETV
vector 43 TaxiNetwork.node[120] visitedPerTimestep ETV
vector 44 TaxiNetwork.node[111] visitedPerTimestep ETV
vector 45 TaxiNetwork.node[6] visitedPerTimestep ETV
vector 46 TaxiNetwork.node[7] visitedPerTimestep ETV
vector 47 TaxiNetwork.node[92] visitedPerTimestep ETV
vector 48 TaxiNetwork.node[22] visitedPerTimestep ETV
vector 49 TaxiNetwork.node[31] visitedPerTimestep ETV
vector 50 TaxiNetwork.node[90] visitedPerTimestep ETV
vector 51 TaxiNetwork.node[20] visitedPerTimestep ETV
vector 52 TaxiNetwork.node[11] visitedPerTimestep ETV
vector 53 TaxiNetwork.node[44] visitedPerTimestep ETV
vector 54 TaxiNetwork.node[89] visitedPerTimestep ETV
vector 55 TaxiNetwork.node[101] visitedPerTimestep ETV
vector 56 TaxiNetwork.node[55] visitedPerTimestep ETV
vector 57 TaxiNetwork.node[51] visitedPerTimestep ETV
vector 58 TaxiNetwork.node[54] visitedPerTimestep ETV
vector 59 TaxiNetwork.node[36] visitedPerTimestep ETV
vector 60 TaxiNetwork.node[82] visitedPerTimestep ETV
vector 61 TaxiNetwork.node[87] visitedPerTimestep ETV
vector 62 TaxiNetwork.node[14] visitedPerTimestep ETV
vector 63 TaxiNetwork.node[10] visitedPerTimestep ETV
vector 64 TaxiNetwork.node[140] visitedPerTimestep ETV
vector 65 TaxiNetwork.node[46] visitedPerTimestep ETV
vector 66 TaxiNetwork.node[32] visitedPerTimestep ETV
vector 67 TaxiNetwork.node[40] visitedPerTimestep ETV
vector 68 TaxiNetwork.node[39] visitedPerTimestep ETV
vector 69 TaxiNetwork.node[27] visitedPerTimestep ETV
vector 70 TaxiNetwork.node[83] visitedPerTimestep ETV
vector 71 TaxiNetwork.node[26] visitedPerTimestep ETV
vector 72 TaxiNetwork.node[29] visitedPerTimestep ETV
vector 73 TaxiNetwork.node[16] visitedPerTimestep ETV
vector 74 TaxiNetwork.node[123] visitedPerTimestep ETV
vector 75 TaxiNetwork.node[45] visitedPerTimestep ETV
vector 76 TaxiNetwork.node[19] visitedPerTimestep ETV
vector 77 TaxiNetwork.node[1] visitedPerTimestep ETV
vector 78 TaxiNetwork.node[2] visitedPerTimestep ETV
vector 79 TaxiNetwork.node[84] visitedPerTimestep ETV
vector 80 TaxiNetwork.node[104] visitedPerTimestep ETV
vector 81 TaxiNetwork.node[3] visitedPerTimestep ETV
vector 82 TaxiNetwork.node[0] visitedPerTimestep ETV
vector 83 TaxiNetwork.node[64] visitedPerTimestep ETV
vector 84 TaxiNetwork.node[60] visitedPerTimestep ETV
vector 85 TaxiNetwork.node[72] visitedPerTimestep ETV
vector 86 TaxiNetwork.node[121] visitedPerTimestep ETV
vector 87 TaxiNetwork.node[133] visitedPerTimestep ETV
vector 88 TaxiNetwork.node[73] visitedPerTimestep ETV
vector 89 TaxiNetwork.node[62] visitedPerTimestep ETV
vector 90 TaxiNetwork.node[76] visitedPerTimestep ETV
vector 91 TaxiNetwork.node[77] visitedPerTimestep ETV
vector 92 TaxiNetwork.node[70] visitedPerTimestep ETV
vector 93 TaxiNetwork.node[126] visitedPerTimestep ETV
vector 94 TaxiNetwork.node[131] visitedPerTimestep ETV
vector 95 TaxiNetwork.node[122] visitedPerTimestep ETV
vector 96 TaxiNetwork.node[35] visitedPerTimestep ETV
vector 97 TaxiNetwork.node[94] visitedPerTimestep ETV
vector 98 TaxiNetwork.node[21] visitedPerTimestep ETV
vector 99 TaxiNetwork.node[18] visitedPerTimestep ETV
vector 100 TaxiNetwork.node[4] visitedPerTimestep ETV
vector 101 TaxiNetwork.node[59] visitedPerTimestep ETV
vector 102 TaxiNetwork.node[56] visitedPerTimestep ETV
vector 103 TaxiNetwork.node[34] visitedPerTimestep ETV
vector 104 TaxiNetwork.node[78] visitedPerTimestep ETV
vector 105 TaxiNetwork.node[66] visitedPerTimestep ETV
vector 106 TaxiNetwork.node[142] visitedPerTimestep ETV
vector 107 TaxiNetwork.node[24] visitedPerTimestep ETV
vector 108 TaxiNetwork.node[37] visitedPerTimestep ETV
vector 109 TaxiNetwork.node[138] visitedPerTimestep ETV
vector 110 TaxiNetwork.node[28] visitedPerTimestep ETV
vector 111 TaxiNetwork.node[25] visitedPerTimestep ETV
vector 112 TaxiNetwork.node[50] visitedPerTimestep ETV
vector 113 TaxiNetwork.node[98] visitedPerTimestep ETV
vector 114 TaxiNetwork.node[47] visitedPerTimestep ETV
vector 115 TaxiNetwork.node[135] visitedPerTimestep ETV
vector 116 TaxiNetwork.node[105] visitedPerTimestep ETV
vector 117 TaxiNetwork.node[119] visitedPerTimestep ETV
vector 118 TaxiNetwork.node[144] visitedPerTimestep ETV
vector 119 TaxiNetwork.node[136] visitedPerTimestep ETV
vector 120 TaxiNetwork.node[48] visitedPerTimestep ETV
vector 121 TaxiNetwork.node[49] visitedPerTimestep ETV
vector 122 TaxiNetwork.node[112] visitedPerTimestep ETV
vector 123 TaxiNetwork.node[128] visitedPerTimestep ETV
vector 124 TaxiNetwork.node[130] visitedPerTimestep ETV
vector 125 TaxiNetwork.node[134] visitedPerTimestep ETV
vector 126 TaxiNetwork.node[75] visitedPerTimestep ETV
vector 127 TaxiNetwork.node[124] visitedPerTimestep ETV
vector 128 TaxiNetwork.node[23] visitedPerTimestep ETV
vector 129 TaxiNetwork.node[41] visitedPerTimestep ETV
vector 130 TaxiNetwork.node[38] visitedPerTimestep ETV
vector 131 TaxiNetwork.node[108] visitedPerTimestep ETV
vector 132 TaxiNetwork.node[42] visitedPerTimestep ETV
vector 133 TaxiNetwork.node[74] visitedPerTimestep ETV
vector 134 TaxiNetwork.node[127] visitedPerTimestep ETV
vector 135 TaxiNetwork.node[107] visitedPerTimestep ETV
vector 136 TaxiNetwork.node[81] visitedPerTimestep ETV
vector 137 TaxiNetwork.node[125] visitedPerTimestep ETV
vector 138 TaxiNetwork.node[97] visitedPerTimestep ETV
vector 139 TaxiNetwork.node[80] visitedPerTimestep ETV
vector 140 TaxiNetwork.node[95] visitedPerTimestep ETV
vector 141 TaxiNetwork.node[109] visitedPerTimestep ETV
vector 142 TaxiNetwork.node[43] visitedPerTimestep ETV
0	16859 223 1 3864 0 0 18 1 144 2303 315009
1	17082 168 2 3736 0 0 14 2 144 1575 201327
2	17250 84 3 3068 0 0 7 3 144 827 113605
3	17334 68 4 3732 0 0 6 4 144 572 72150
4	17402 300 5 3872 0 0 24 5 144 3057 411779
5	17702 147 6 3612 0 0 12 6 144 1470 196842
6	17849 119 7 3620 0 0 10 7 144 1111 151507
7	17968 230 8 3724 0 0 19 8 144 2141 293105
8	18198 160 9 2718 0 0 13 9 143 1606 214844
9	18358 175 10 2724 0 0 14 10 143 1773 242603
10	18533 143 11 2708 0 0 11 11 143 1264 161842
11	18676 230 14 3688 0 0 17 12 144 2222 306094
12	18906 92 15 3684 0 0 7 13 144 812 107666
13	18998 53 16 3548 0 0 4 14 144 443 61549
14	19051 160 17 3692 0 0 12 15 144 1445 190151
15	19211 175 18 3596 0 0 13 16 144 1670 230286
16	19386 215 20 3704 0 0 16 17 144 2016 271996
17	19601 255 22 3972 0 0 19 18 144 2482 339628
18	19856 463 23 4060 0 0 35 19 144 4356 574566
19	20319 292 24 3488 0 0 22 20 144 2650 344018
20	20611 416 25 4116 0 0 31 21 144 3952 532518
21	21027 254 26 4000 0 0 19 22 144 2399 318117
22	21281 215 27 3868 0 0 16 23 144 2077 283485
23	21496 321 28 3672 0 0 24 24 144 3059 405871
24	21817 570 29 4056 0 0 42 25 144 5543 753693
25	22387 277 30 3968 0 0 21 26 144 2549 335107
26	22664 356 31 4040 0 0 27 27 144 3291 429591
27	23020 417 32 3800 0 0 31 28 144 4092 556210
28	23437 363 34 4144 0 0 27 29 145 3480 469502
29	23800 469 35 3748 0 0 35 30 144 4488 599078
30	24269 333 36 3964 0 0 25 31 144 3171 422847
31	24602 492 37 4128 0 0 37 32 144 4684 623512
32	25094 335 38 3960 0 0 25 33 144 3143 411255
33	25429 361 39 4080 0 0 27 34 144 3471 471975
34	25790 450 40 3992 0 0 34 35 144 4162 539328
35	26240 375 41 3956 0 0 28 36 144 3589 483109
36	26615 296 43 4140 0 0 22 37 144 2877 394071
37	26911 200 44 3836 0 0 15 38 144 1875 245739
38	27111 108 47 3664 0 0 8 39 144 1007 136389
39	27219 284 48 3744 0 0 21 40 144 2726 365614
40	27503 283 49 3900 0 0 21 41 144 2719 364259
41	27786 413 51 3520 0 0 31 42 144 3949 527647
42	28199 322 52 4108 0 0 24 43 144 3088 413484
43	28521 347 53 4012 0 0 26 44 144 3246 424148
44	28868 294 54 3996 0 0 22 45 144 2789 367109
45	29162 417 55 3828 0 0 31 46 144 4027 541079
46	29579 371 56 4064 0 0 28 47 144 3489 450479
47	29950 321 60 2916 0 0 24 48 143 3056 404462
48	30271 182 62 3444 0 0 14 49 144 1686 212824
49	30453 201 63 3392 0 0 15 50 144 1926 256576
50	30654 381 64 4016 0 0 28 51 144 3820 529940
51	31035 283 69 3640 0 0 21 52 144 2778 376664
52	31318 355 70 3980 0 0 26 53 144 3454 470150
53	31673 309 71 4132 0 0 23 54 144 2993 400179
54	31982 336 72 4032 0 0 25 55 144 3221 427483
55	32318 215 73 4084 0 0 16 56 144 2107 285377
56	32533 285 76 4088 0 0 21 57 144 2799 385525
57	32818 130 77 1886 0 0 10 58 143 1166 140888
58	32948 170 78 2746 0 0 13 59 143 1622 208842
59	33118 282 81 3424 0 0 21 60 144 2651 344829
60	33400 320 82 3432 0 0 24 61 144 3019 395581
61	33720 373 86 4072 0 0 28 62 144 3577 470111
62	34093 393 88 4036 0 0 29 63 144 3852 523580
63	34486 257 89 3936 0 0 19 64 144 2540 347110
64	34743 325 93 4124 0 0 24 65 144 3222 440186
65	35068 378 94 3680 0 0 28 66 144 3692 498580
66	35446 157 96 2922 0 0 12 67 143 1414 176184
67	35603 227 99 3440 0 0 17 68 144 2193 290213
68	35830 158 100 2570 0 0 12 69 143 1476 187312
69	35988 208 101 2924 0 0 16 70 143 1925 239665
70	36196 215 103 2964 0 0 16 71 143 2048 271176
71	36411 154 104 2298 0 0 12 72 143 1416 175226
72	36565 202 105 2550 0 0 15 73 143 1888 244590
73	36767 423 115 4068 0 0 31 74 144 4096 552626
74	37190 294 116 4052 0 0 22 75 144 2830 373462
75	37484 383 117 4028 0 0 28 76 144 3833 530357
76	37867 270 120 3464 0 0 20 77 144 2567 337179
77	38137 176 122 3376 0 0 13 78 144 1694 226000
78	38313 325 125 4100 0 0 24 79 144 3225 439169
79	38638 229 126 3944 0 0 17 80 144 2218 297658
80	38867 462 127 3912 0 0 34 81 144 4528 611820
81	39329 510 134 4120 0 0 37 82 144 5094 707398
82	39839 366 137 3988 0 0 27 83 144 3626 495174
83	40205 258 152 3720 0 0 19 84 144 2513 340463
84	40463 102 153 3544 0 0 8 85 144 926 110822
85	40565 148 155 3576 0 0 11 86 144 1426 188452
86	40713 146 156 3628 0 0 11 87 144 1391 180405
87	40859 198 158 3700 0 0 15 88 144 1845 233845
88	41057 136 160 3696 0 0 10 89 144 1366 189164
89	41193 150 163 3592 0 0 11 90 144 1471 200173
90	41343 25 164 280 0 0 2 91 105 196 19306
91	41368 91 165 2390 0 0 7 92 143 841 103197
92	41459 220 167 3600 0 0 16 93 144 2194 303268
93	41679 123 169 3564 0 0 9 94 144 1218 166952
94	41802 247 172 3716 0 0 18 95 144 2453 337563
95	42049 301 177 4136 0 0 22 96 144 3046 424126
96	42350 135 193 3436 0 0 10 97 144 1338 181636
97	42485 259 194 3892 0 0 19 98 144 2574 352130
98	42744 132 205 2564 0 0 10 99 143 1320 176420
99	42876 297 208 3784 0 0 22 100 144 2939 396977
100	43173 324 209 3984 0 0 22 101 144 3044 423600
101	43497 14 216 216 0 0 1 102 102 102 10404
102	43511 159 232 3212 0 0 11 103 144 1474 199144
103	43670 273 241 3492 0 0 19 104 144 2487 329229
104	43943 72 279 3320 0 0 5 105 144 646 84470
105	44015 118 282 3540 0 0 8 106 144 1096 151276
106	44133 467 296 4048 0 0 32 107 144 4361 598847
107	44600 172 310 2562 0 0 12 108 143 1582 210890
108	44772 173 353 3396 0 0 12 109 144 1568 207386
109	44945 366 386 4004 0 0 25 110 144 3391 463687
110	45311 101 409 2302 0 0 7 111 143 919 121917
111	45412 70 410 678 0 0 5 112 133 637 81465
112	45482 58 460 1752 0 0 4 113 143 521 68551
113	45540 113 462 1756 0 0 8 114 143 990 123202
114	45653 56 464 502 0 0 4 115 122 472 55726
115	45709 29 466 1746 0 0 2 116 143 259 33905
116	45738 128 469 2624 0 0 9 117 143 1193 158845
117	45866 219 493 2622 0 0 15 118 143 2066 285368
118	46085 71 495 1740 0 0 5 119 143 625 78539
119	46156 86 499 1754 0 0 6 120 143 772 99950
120	46242 58 500 1750 0 0 4 121 143 529 70423
121	46300 14 501 501 0 0 1 122 122 122 14884
122	46314 192 524 3740 0 0 13 123 144 1807 251821
123	46506 102 560 3708 0 0 7 124 144 954 130442
124	46608 147 561 3588 0 0 10 125 144 1388 193124
125	46755 163 563 3356 0 0 11 126 144 1543 216711
126	46918 58 574 3604 0 0 4 127 144 552 76358
127	46976 29 577 3728 0 0 2 128 144 272 37120
128	47005 57 664 1578 0 0 4 129 143 537 72203
129	47062 58 665 1570 0 0 4 130 143 548 75222
130	47120 115 666 1576 0 0 8 131 143 1090 148714
131	47235 87 667 1568 0 0 6 132 143 825 113579
132	47322 74 673 1574 0 0 5 133 143 703 98915
133	47396 72 681 2770 0 0 5 134 143 695 96651
134	47468 42 764 770 0 0 3 135 138 411 56313
135	47510 14 765 765 0 0 1 136 136 136 18496
136	47524 14 766 766 0 0 1 137 137 137 18769
137	47538 14 767 767 0 0 1 138 138 138 19044
138	47552 14 897 897 0 0 1 139 139 139 19321
139	47566 60 1178 3712 0 0 4 140 144 567 80385
140	47626 15 1226 1226 0 0 1 141 141 141 19881
141	47641 45 1544 1572 0 0 3 142 143 427 60777
142	47686 30 1558 1566 0 0 2 143 143 286 40898

