version 3
run General-249-20250904-14:13:19-15619
attr configname General
attr datetime 20250904-14:13:19
attr datetimef 20250904-141319
attr experiment General
attr inifile omnetpp.ini
attr iterationvars ""
attr iterationvarsd ""
attr iterationvarsf ""
attr measurement ""
attr network TaxiNetwork
attr processid 15619
attr repetition 249
attr replication #249
attr resultdir results
attr runnumber 249
attr seedset 249
config network TaxiNetwork
config seed-set 249
config num-rngs 1
config sim-time-limit 10s
config repeat 500
config *.numWalkers 1
config *.enableDuplication true
config *.rc 700
config **.node[0].xCor 2933
config **.node[0].yCor 2747
config **.node[1].xCor 2919
config **.node[1].yCor 2817
config **.node[2].xCor 2910
config **.node[2].yCor 2861
config **.node[3].xCor 2429
config **.node[3].yCor 2851
config **.node[4].xCor 2908
config **.node[4].yCor 2714
config **.node[5].xCor 2606
config **.node[5].yCor 2722
config **.node[6].xCor 2575
config **.node[6].yCor 2753
config **.node[7].xCor 2654
config **.node[7].yCor 2513
config **.node[8].xCor 2773
config **.node[8].yCor 2580
config **.node[9].xCor 3043
config **.node[9].yCor 2780
config **.node[10].xCor 3020
config **.node[10].yCor 2813
config **.node[11].xCor 2599
config **.node[11].yCor 2300
config **.node[12].xCor 2917
config **.node[12].yCor 2698
config **.node[13].xCor 2625
config **.node[13].yCor 2641
config **.node[14].xCor 2604
config **.node[14].yCor 2790
config **.node[15].xCor 2786
config **.node[15].yCor 3082
config **.node[16].xCor 2603
config **.node[16].yCor 2802
config **.node[17].xCor 2637
config **.node[17].yCor 2869
config **.node[18].xCor 2675
config **.node[18].yCor 2955
config **.node[19].xCor 2845
config **.node[19].yCor 2937
config **.node[20].xCor 2860
config **.node[20].yCor 2888
config **.node[21].xCor 2843
config **.node[21].yCor 4158
config **.node[22].xCor 2852
config **.node[22].yCor 4017
config **.node[23].xCor 2892
config **.node[23].yCor 4961
config **.node[24].xCor 2313
config **.node[24].yCor 3993
config **.node[25].xCor 2891
config **.node[25].yCor 4959
config **.node[26].xCor 2370
config **.node[26].yCor 4050
config **.node[27].xCor 2788
config **.node[27].yCor 3958
config **.node[28].xCor 2819
config **.node[28].yCor 4428
config **.node[29].xCor 2790
config **.node[29].yCor 3761
config **.node[30].xCor 2809
config **.node[30].yCor 2908
config **.node[31].xCor 2919
config **.node[31].yCor 3575
config **.node[32].xCor 2946
config **.node[32].yCor 3466
config **.node[33].xCor 2911
config **.node[33].yCor 3453
config **.node[34].xCor 2370
config **.node[34].yCor 3656
config **.node[35].xCor 2438
config **.node[35].yCor 3738
config **.node[36].xCor 2737
config **.node[36].yCor 3570
config **.node[37].xCor 2921
config **.node[37].yCor 3698
config **.node[38].xCor 2907
config **.node[38].yCor 5197
config **.node[39].xCor 2860
config **.node[39].yCor 3852
config **.node[40].xCor 2927
config **.node[40].yCor 3684
config **.node[41].xCor 3023
config **.node[41].yCor 5313
config **.node[42].xCor 3220
config **.node[42].yCor 5811
config **.node[43].xCor 3432
config **.node[43].yCor 5715
config **.node[44].xCor 2754
config **.node[44].yCor 2463
config **.node[45].xCor 2646
config **.node[45].yCor 2673
config **.node[46].xCor 3051
config **.node[46].yCor 2792
config **.node[47].xCor 1666
config **.node[47].yCor 3697
config **.node[48].xCor 1662
config **.node[48].yCor 3694
config **.node[49].xCor 1664
config **.node[49].yCor 3667
config **.node[50].xCor 1660
config **.node[50].yCor 3664
config **.node[51].xCor 1710
config **.node[51].yCor 3573
config **.node[52].xCor 2082
config **.node[52].yCor 2650
config **.node[53].xCor 2086
config **.node[53].yCor 2657
config **.node[54].xCor 2257
config **.node[54].yCor 3232
config **.node[55].xCor 2258
config **.node[55].yCor 3225
config **.node[56].xCor 1926
config **.node[56].yCor 2570
config **.node[57].xCor 1926
config **.node[57].yCor 2576
config **.node[58].xCor 2104
config **.node[58].yCor 1758
config **.node[59].xCor 1957
config **.node[59].yCor 1826
config **.node[60].xCor 3473
config **.node[60].yCor 1523
config **.node[61].xCor 3335
config **.node[61].yCor 1726
config **.node[62].xCor 3478
config **.node[62].yCor 1517
config **.node[63].xCor 3386
config **.node[63].yCor 2119
config **.node[64].xCor 3474
config **.node[64].yCor 1762
config **.node[65].xCor 3797
config **.node[65].yCor 2099
config **.node[66].xCor 3642
config **.node[66].yCor 2136
config **.node[67].xCor 3481
config **.node[67].yCor 2334
config **.node[68].xCor 3088
config **.node[68].yCor 1505
config **.node[69].xCor 3037
config **.node[69].yCor 1693
config **.node[70].xCor 3026
config **.node[70].yCor 1700
config **.node[71].xCor 3019
config **.node[71].yCor 669
config **.node[72].xCor 3513
config **.node[72].yCor 1358
config **.node[73].xCor 3545
config **.node[73].yCor 1230
config **.node[74].xCor 4228
config **.node[74].yCor 4220
config **.node[75].xCor 3379
config **.node[75].yCor 1207
config **.node[76].xCor 3596
config **.node[76].yCor 963
config **.node[77].xCor 3637
config **.node[77].yCor 1188
config **.node[78].xCor 3759
config **.node[78].yCor 1030
config **.node[79].xCor 2918
config **.node[79].yCor 1455
config **.node[80].xCor 2711
config **.node[80].yCor 1297
config **.node[81].xCor 439
config **.node[81].yCor 1623
config **.node[82].xCor 2857
config **.node[82].yCor 3581
config **.node[83].xCor 2858
config **.node[83].yCor 3584
config **.node[84].xCor 2999
config **.node[84].yCor 2636
config **.node[85].xCor 2905
config **.node[85].yCor 2778
config **.node[86].xCor 2653
config **.node[86].yCor 2845
config **.node[87].xCor 2864
config **.node[87].yCor 2836
config **.node[88].xCor 2426
config **.node[88].yCor 2892
config **.node[89].xCor 2964
config **.node[89].yCor 2804
config **.node[90].xCor 2586
config **.node[90].yCor 3135
config **.node[91].xCor 2864
config **.node[91].yCor 2980
config **.node[92].xCor 2527
config **.node[92].yCor 3219
config **.node[93].xCor 2863
config **.node[93].yCor 3142
config **.node[94].xCor 2485
config **.node[94].yCor 3269
config **.node[95].xCor 2653
config **.node[95].yCor 1065
config **.node[96].xCor 4062
config **.node[96].yCor 400
config **.node[97].xCor 5762
config **.node[97].yCor 3023
config **.node[98].xCor 1414
config **.node[98].yCor 3461
config **.node[99].xCor 2911
config **.node[99].yCor 1737
config **.node[100].xCor 2595
config **.node[100].yCor 2299
config **.node[101].xCor 2702
config **.node[101].yCor 3419
config **.node[102].xCor 2813
config **.node[102].yCor 3307
config **.node[103].xCor 2638
config **.node[103].yCor 2258
config **.node[104].xCor 2590
config **.node[104].yCor 3125
config **.node[105].xCor 1856
config **.node[105].yCor 2990
config **.node[106].xCor 1894
config **.node[106].yCor 2239
config **.node[107].xCor 383
config **.node[107].yCor 1251
config **.node[108].xCor 3447
config **.node[108].yCor 5489
config **.node[109].xCor 3450
config **.node[109].yCor 5697
config **.node[110].xCor 2719
config **.node[110].yCor 1920
config **.node[111].xCor 2085
config **.node[111].yCor 2389
config **.node[112].xCor 1910
config **.node[112].yCor 2548
config **.node[113].xCor 2069
config **.node[113].yCor 2050
config **.node[114].xCor 2184
config **.node[114].yCor 2209
config **.node[115].xCor 2278
config **.node[115].yCor 2390
config **.node[116].xCor 2249
config **.node[116].yCor 2299
config **.node[117].xCor 2356
config **.node[117].yCor 2303
config **.node[118].xCor 2192
config **.node[118].yCor 2475
config **.node[119].xCor 1720
config **.node[119].yCor 2911
config **.node[120].xCor 2400
config **.node[120].yCor 2887
config **.node[121].xCor 3344
config **.node[121].yCor 1890
config **.node[122].xCor 3136
config **.node[122].yCor 2418
config **.node[123].xCor 3243
config **.node[123].yCor 2525
config **.node[124].xCor 2396
config **.node[124].yCor 1267
config **.node[125].xCor 467
config **.node[125].yCor 1875
config **.node[126].xCor 3506
config **.node[126].yCor 1221
config **.node[127].xCor 1034
config **.node[127].yCor 1474
config **.node[128].xCor 2908
config **.node[128].yCor 1784
config **.node[129].xCor 2876
config **.node[129].yCor 1761
config **.node[130].xCor 2849
config **.node[130].yCor 1795
config **.node[131].xCor 3029
config **.node[131].yCor 1859
config **.node[132].xCor 2924
config **.node[132].yCor 1848
config **.node[133].xCor 3493
config **.node[133].yCor 1559
config **.node[134].xCor 2760
config **.node[134].yCor 1761
config **.node[135].xCor 1644
config **.node[135].yCor 3755
config **.node[136].xCor 1463
config **.node[136].yCor 3432
config **.node[137].xCor 2595
config **.node[137].yCor 2849
config **.node[138].xCor 2581
config **.node[138].yCor 2867
config **.node[139].xCor 2524
config **.node[139].yCor 2911
config **.node[140].xCor 2570
config **.node[140].yCor 2924
config **.node[141].xCor 2676
config **.node[141].yCor 2890
config **.node[142].xCor 2666
config **.node[142].yCor 2876
config **.node[143].xCor 3735
config **.node[143].yCor 1726
config **.node[144].xCor 1637
config **.node[144].yCor 3438

vector 0 TaxiNetwork.node[17] visitedPerTimestep ETV
vector 1 TaxiNetwork.node[85] visitedPerTimestep ETV
vector 2 TaxiNetwork.node[84] visitedPerTimestep ETV
vector 3 TaxiNetwork.node[20] visitedPerTimestep ETV
vector 4 TaxiNetwork.node[104] visitedPerTimestep ETV
vector 5 TaxiNetwork.node[137] visitedPerTimestep ETV
vector 6 TaxiNetwork.node[89] visitedPerTimestep ETV
vector 7 TaxiNetwork.node[6] visitedPerTimestep ETV
vector 8 TaxiNetwork.node[1] visitedPerTimestep ETV
vector 9 TaxiNetwork.node[142] visitedPerTimestep ETV
vector 10 TaxiNetwork.node[140] visitedPerTimestep ETV
vector 11 TaxiNetwork.node[92] visitedPerTimestep ETV
vector 12 TaxiNetwork.node[4] visitedPerTimestep ETV
vector 13 TaxiNetwork.node[14] visitedPerTimestep ETV
vector 14 TaxiNetwork.node[18] visitedPerTimestep ETV
vector 15 TaxiNetwork.node[2] visitedPerTimestep ETV
vector 16 TaxiNetwork.node[32] visitedPerTimestep ETV
vector 17 TaxiNetwork.node[94] visitedPerTimestep ETV
vector 18 TaxiNetwork.node[139] visitedPerTimestep ETV
vector 19 TaxiNetwork.node[103] visitedPerTimestep ETV
vector 20 TaxiNetwork.node[114] visitedPerTimestep ETV
vector 21 TaxiNetwork.node[44] visitedPerTimestep ETV
vector 22 TaxiNetwork.node[91] visitedPerTimestep ETV
vector 23 TaxiNetwork.node[102] visitedPerTimestep ETV
vector 24 TaxiNetwork.node[54] visitedPerTimestep ETV
vector 25 TaxiNetwork.node[33] visitedPerTimestep ETV
vector 26 TaxiNetwork.node[16] visitedPerTimestep ETV
vector 27 TaxiNetwork.node[0] visitedPerTimestep ETV
vector 28 TaxiNetwork.node[100] visitedPerTimestep ETV
vector 29 TaxiNetwork.node[117] visitedPerTimestep ETV
vector 30 TaxiNetwork.node[122] visitedPerTimestep ETV
vector 31 TaxiNetwork.node[11] visitedPerTimestep ETV
vector 32 TaxiNetwork.node[10] visitedPerTimestep ETV
vector 33 TaxiNetwork.node[101] visitedPerTimestep ETV
vector 34 TaxiNetwork.node[74] visitedPerTimestep ETV
vector 35 TaxiNetwork.node[83] visitedPerTimestep ETV
vector 36 TaxiNetwork.node[27] visitedPerTimestep ETV
vector 37 TaxiNetwork.node[9] visitedPerTimestep ETV
vector 38 TaxiNetwork.node[86] visitedPerTimestep ETV
vector 39 TaxiNetwork.node[90] visitedPerTimestep ETV
vector 40 TaxiNetwork.node[93] visitedPerTimestep ETV
vector 41 TaxiNetwork.node[123] visitedPerTimestep ETV
vector 42 TaxiNetwork.node[31] visitedPerTimestep ETV
vector 43 TaxiNetwork.node[36] visitedPerTimestep ETV
vector 44 TaxiNetwork.node[113] visitedPerTimestep ETV
vector 45 TaxiNetwork.node[106] visitedPerTimestep ETV
vector 46 TaxiNetwork.node[129] visitedPerTimestep ETV
vector 47 TaxiNetwork.node[124] visitedPerTimestep ETV
vector 48 TaxiNetwork.node[58] visitedPerTimestep ETV
vector 49 TaxiNetwork.node[134] visitedPerTimestep ETV
vector 50 TaxiNetwork.node[99] visitedPerTimestep ETV
vector 51 TaxiNetwork.node[63] visitedPerTimestep ETV
vector 52 TaxiNetwork.node[66] visitedPerTimestep ETV
vector 53 TaxiNetwork.node[69] visitedPerTimestep ETV
vector 54 TaxiNetwork.node[70] visitedPerTimestep ETV
vector 55 TaxiNetwork.node[133] visitedPerTimestep ETV
vector 56 TaxiNetwork.node[76] visitedPerTimestep ETV
vector 57 TaxiNetwork.node[78] visitedPerTimestep ETV
vector 58 TaxiNetwork.node[96] visitedPerTimestep ETV
vector 59 TaxiNetwork.node[77] visitedPerTimestep ETV
vector 60 TaxiNetwork.node[64] visitedPerTimestep ETV
vector 61 TaxiNetwork.node[131] visitedPerTimestep ETV
vector 62 TaxiNetwork.node[110] visitedPerTimestep ETV
vector 63 TaxiNetwork.node[8] visitedPerTimestep ETV
vector 64 TaxiNetwork.node[30] visitedPerTimestep ETV
vector 65 TaxiNetwork.node[5] visitedPerTimestep ETV
vector 66 TaxiNetwork.node[141] visitedPerTimestep ETV
vector 67 TaxiNetwork.node[13] visitedPerTimestep ETV
vector 68 TaxiNetwork.node[88] visitedPerTimestep ETV
vector 69 TaxiNetwork.node[105] visitedPerTimestep ETV
vector 70 TaxiNetwork.node[118] visitedPerTimestep ETV
vector 71 TaxiNetwork.node[3] visitedPerTimestep ETV
vector 72 TaxiNetwork.node[62] visitedPerTimestep ETV
vector 73 TaxiNetwork.node[73] visitedPerTimestep ETV
vector 74 TaxiNetwork.node[121] visitedPerTimestep ETV
vector 75 TaxiNetwork.node[65] visitedPerTimestep ETV
vector 76 TaxiNetwork.node[132] visitedPerTimestep ETV
vector 77 TaxiNetwork.node[68] visitedPerTimestep ETV
vector 78 TaxiNetwork.node[79] visitedPerTimestep ETV
vector 79 TaxiNetwork.node[80] visitedPerTimestep ETV
vector 80 TaxiNetwork.node[72] visitedPerTimestep ETV
vector 81 TaxiNetwork.node[75] visitedPerTimestep ETV
vector 82 TaxiNetwork.node[61] visitedPerTimestep ETV
vector 83 TaxiNetwork.node[60] visitedPerTimestep ETV
vector 84 TaxiNetwork.node[130] visitedPerTimestep ETV
vector 85 TaxiNetwork.node[126] visitedPerTimestep ETV
vector 86 TaxiNetwork.node[128] visitedPerTimestep ETV
vector 87 TaxiNetwork.node[143] visitedPerTimestep ETV
vector 88 TaxiNetwork.node[67] visitedPerTimestep ETV
vector 89 TaxiNetwork.node[12] visitedPerTimestep ETV
vector 90 TaxiNetwork.node[15] visitedPerTimestep ETV
vector 91 TaxiNetwork.node[40] visitedPerTimestep ETV
vector 92 TaxiNetwork.node[34] visitedPerTimestep ETV
vector 93 TaxiNetwork.node[29] visitedPerTimestep ETV
vector 94 TaxiNetwork.node[120] visitedPerTimestep ETV
vector 95 TaxiNetwork.node[111] visitedPerTimestep ETV
vector 96 TaxiNetwork.node[57] visitedPerTimestep ETV
vector 97 TaxiNetwork.node[7] visitedPerTimestep ETV
vector 98 TaxiNetwork.node[52] visitedPerTimestep ETV
vector 99 TaxiNetwork.node[46] visitedPerTimestep ETV
vector 100 TaxiNetwork.node[87] visitedPerTimestep ETV
vector 101 TaxiNetwork.node[55] visitedPerTimestep ETV
vector 102 TaxiNetwork.node[24] visitedPerTimestep ETV
vector 103 TaxiNetwork.node[28] visitedPerTimestep ETV
vector 104 TaxiNetwork.node[22] visitedPerTimestep ETV
vector 105 TaxiNetwork.node[39] visitedPerTimestep ETV
vector 106 TaxiNetwork.node[82] visitedPerTimestep ETV
vector 107 TaxiNetwork.node[115] visitedPerTimestep ETV
vector 108 TaxiNetwork.node[45] visitedPerTimestep ETV
vector 109 TaxiNetwork.node[127] visitedPerTimestep ETV
vector 110 TaxiNetwork.node[19] visitedPerTimestep ETV
vector 111 TaxiNetwork.node[56] visitedPerTimestep ETV
vector 112 TaxiNetwork.node[59] visitedPerTimestep ETV
vector 113 TaxiNetwork.node[112] visitedPerTimestep ETV
vector 114 TaxiNetwork.node[53] visitedPerTimestep ETV
vector 115 TaxiNetwork.node[138] visitedPerTimestep ETV
vector 116 TaxiNetwork.node[116] visitedPerTimestep ETV
vector 117 TaxiNetwork.node[35] visitedPerTimestep ETV
vector 118 TaxiNetwork.node[95] visitedPerTimestep ETV
vector 119 TaxiNetwork.node[21] visitedPerTimestep ETV
vector 120 TaxiNetwork.node[37] visitedPerTimestep ETV
vector 121 TaxiNetwork.node[144] visitedPerTimestep ETV
vector 122 TaxiNetwork.node[47] visitedPerTimestep ETV
vector 123 TaxiNetwork.node[48] visitedPerTimestep ETV
vector 124 TaxiNetwork.node[51] visitedPerTimestep ETV
vector 125 TaxiNetwork.node[119] visitedPerTimestep ETV
vector 126 TaxiNetwork.node[136] visitedPerTimestep ETV
vector 127 TaxiNetwork.node[98] visitedPerTimestep ETV
vector 128 TaxiNetwork.node[71] visitedPerTimestep ETV
vector 129 TaxiNetwork.node[50] visitedPerTimestep ETV
vector 130 TaxiNetwork.node[81] visitedPerTimestep ETV
vector 131 TaxiNetwork.node[109] visitedPerTimestep ETV
vector 132 TaxiNetwork.node[42] visitedPerTimestep ETV
vector 133 TaxiNetwork.node[43] visitedPerTimestep ETV
vector 134 TaxiNetwork.node[38] visitedPerTimestep ETV
vector 135 TaxiNetwork.node[23] visitedPerTimestep ETV
vector 136 TaxiNetwork.node[41] visitedPerTimestep ETV
vector 137 TaxiNetwork.node[26] visitedPerTimestep ETV
vector 138 TaxiNetwork.node[135] visitedPerTimestep ETV
vector 139 TaxiNetwork.node[49] visitedPerTimestep ETV
0	1	0	1
0	111	0	67
0	218	0	99
0	245	0	107
0	274	0	111
0	419	0	119
0	470	0	119
0	540	0	121
0	873	0	126
0	909	0	126
0	920	0	126
0	943	0	126
0	982	0	126
0	1080	0	126
0	1110	0	127
0	1248	0	128
0	1506	0	128
0	2058	0	129
0	2100	0	129
0	2380	0	133
0	2392	0	133
0	2400	0	133
0	2468	0	133
0	2524	0	133
0	2582	0	133
0	2634	0	133
0	2744	0	133
0	3008	0	135
0	3060	0	135
0	3188	0	135
0	3864	0	135
0	4032	0	142
0	5140	0	142
1	2	0	2
1	15	0	14
1	53	0	39
1	59	0	41
1	107	0	66
1	295	0	115
1	315	0	115
1	450	0	119
1	690	0	121
1	766	0	121
1	871	0	126
1	892	0	126
1	906	0	126
1	964	0	126
1	985	0	126
1	1254	0	128
1	1348	0	128
1	1388	0	128
1	1434	0	128
1	1700	0	128
1	1710	0	128
1	1714	0	128
1	1860	0	128
1	1896	0	128
1	1908	0	128
1	2028	0	129
1	2192	0	132
1	2294	0	133
1	2346	0	133
1	2390	0	133
1	2482	0	133
1	2640	0	133
1	2892	0	135
1	3012	0	135
1	3128	0	135
1	3196	0	135
1	3288	0	135
1	3408	0	135
1	4628	0	142
1	5300	0	142
1	5792	0	143
1	5820	0	144
2	3	0	3
2	42	0	32
2	257	0	109
2	395	0	119
2	417	0	119
2	562	0	121
2	665	0	121
2	668	0	121
2	744	0	121
2	844	0	126
2	880	0	126
2	894	0	126
2	914	0	126
2	951	0	126
2	961	0	126
2	1056	0	126
2	1098	0	127
2	1130	0	127
2	1160	0	127
2	1336	0	128
2	1636	0	128
2	1852	0	128
2	2072	0	129
2	2612	0	133
2	3096	0	135
2	3120	0	135
2	3144	0	135
2	3192	0	135
2	3260	0	135
2	3308	0	135
2	3432	0	135
2	4212	0	142
2	4252	0	142
2	4940	0	142
2	5740	0	142
3	4	0	4
3	308	0	115
3	317	0	115
3	325	0	116
3	422	0	119
3	440	0	119
3	727	0	121
3	908	0	126
3	1102	0	127
3	1148	0	127
3	1320	0	128
3	1360	0	128
3	2178	0	132
3	2230	0	132
3	2418	0	133
3	2460	0	133
3	2902	0	135
3	3400	0	135
3	4288	0	142
3	4372	0	142
3	4544	0	142
3	4976	0	142
3	5292	0	142
3	5440	0	142
4	5	0	5
4	197	0	93
4	220	0	100
4	369	0	118
4	390	0	119
4	410	0	119
4	664	0	121
4	736	0	121
4	807	0	126
4	954	0	126
4	986	0	126
4	1152	0	127
4	1298	0	128
4	1486	0	128
4	1652	0	128
4	1712	0	128
4	1736	0	128
4	2120	0	132
4	2830	0	135
4	3384	0	135
4	3600	0	135
4	3692	0	135
4	3716	0	135
4	3844	0	135
4	4308	0	142
4	4568	0	142
4	4620	0	142
4	5520	0	142
4	5544	0	142
5	6	0	6
5	113	0	68
5	242	0	107
5	244	0	107
5	247	0	107
5	365	0	117
5	442	0	119
5	454	0	119
5	560	0	121
5	688	0	121
5	771	0	121
5	811	0	126
5	825	0	126
5	893	0	126
5	910	0	126
5	941	0	126
5	1058	0	126
5	1106	0	127
5	1166	0	127
5	1176	0	127
5	1246	0	128
5	1268	0	128
5	1282	0	128
5	1782	0	128
5	1938	0	128
5	2304	0	133
5	2384	0	133
5	2410	0	133
5	2588	0	133
5	2598	0	133
5	2636	0	133
5	2890	0	135
5	3032	0	135
5	3988	0	142
5	4216	0	142
5	5160	0	142
5	5480	0	142
6	7	0	7
6	18	0	16
6	189	0	89
6	354	0	117
6	398	0	119
6	444	0	119
6	538	0	121
6	573	0	121
6	733	0	121
6	913	0	126
6	1326	0	128
6	1332	0	128
6	1412	0	128
6	1430	0	128
6	1442	0	128
6	2094	0	129
6	2134	0	132
6	2140	0	132
6	2170	0	132
6	2466	0	133
6	3640	0	135
6	3900	0	135
6	4080	0	142
6	5036	0	142
7	8	0	8
7	24	0	19
7	236	0	106
7	294	0	115
7	581	0	121
7	686	0	121
7	816	0	126
7	822	0	126
7	865	0	126
7	966	0	126
7	1100	0	127
7	1134	0	127
7	1346	0	128
7	1630	0	128
7	1850	0	128
7	2116	0	132
7	2320	0	133
7	2352	0	133
7	2422	0	133
7	2664	0	133
7	2682	0	133
7	2750	0	133
7	2916	0	135
7	2928	0	135
7	3652	0	135
7	4224	0	142
7	4300	0	142
7	4464	0	142
7	5076	0	142
7	5148	0	142
7	5376	0	142
7	5452	0	142
8	9	0	9
8	102	0	64
8	201	0	94
8	235	0	106
8	391	0	119
8	475	0	119
8	477	0	119
8	524	0	119
8	526	0	119
8	587	0	121
8	698	0	121
8	716	0	121
8	883	0	126
8	965	0	126
8	1218	0	127
8	1316	0	128
8	1634	0	128
8	1640	0	128
8	1940	0	128
8	2174	0	132
8	2226	0	132
8	2318	0	133
8	2444	0	133
8	2614	0	133
8	2690	0	133
8	3112	0	135
8	4072	0	142
8	4312	0	142
8	4324	0	142
8	4656	0	142
8	5488	0	142
9	10	0	10
9	65	0	44
9	118	0	71
9	268	0	110
9	310	0	115
9	338	0	117
9	403	0	119
9	717	0	121
9	750	0	121
9	952	0	126
9	1202	0	127
9	1226	0	128
9	1310	0	128
9	1318	0	128
9	1424	0	128
9	1502	0	128
9	1638	0	128
9	1780	0	128
9	1864	0	128
9	1904	0	128
9	1968	0	128
9	2190	0	132
9	2376	0	133
9	2448	0	133
9	3072	0	135
9	3136	0	135
9	3348	0	135
9	3860	0	135
9	3984	0	142
9	4108	0	142
9	4460	0	142
9	4484	0	142
9	5296	0	142
9	5304	0	142
9	5548	0	142
9	5784	0	143
10	11	0	11
10	20	0	17
10	37	0	30
10	55	0	40
10	100	0	64
10	271	0	111
10	297	0	115
10	389	0	119
10	392	0	119
10	399	0	119
10	447	0	119
10	589	0	121
10	682	0	121
10	712	0	121
10	737	0	121
10	1076	0	126
10	1090	0	126
10	1758	0	128
10	1794	0	128
10	1944	0	128
10	2022	0	129
10	2124	0	132
10	2132	0	132
10	2336	0	133
10	2354	0	133
10	2462	0	133
10	2576	0	133
10	2706	0	133
10	2806	0	134
10	3668	0	135
10	3884	0	135
10	4320	0	142
10	4532	0	142
10	5484	0	142
11	12	0	12
11	56	0	40
11	62	0	42
11	227	0	102
11	350	0	117
11	583	0	121
11	642	0	121
11	751	0	121
11	806	0	126
11	976	0	126
11	1072	0	126
11	1200	0	127
11	1280	0	128
11	1292	0	128
11	1792	0	128
11	1922	0	128
11	2608	0	133
11	2678	0	133
11	2840	0	135
11	3164	0	135
11	3220	0	135
11	3292	0	135
11	3324	0	135
11	3392	0	135
11	3608	0	135
11	3648	0	135
11	3868	0	135
11	3976	0	142
11	4352	0	142
11	4560	0	142
11	4588	0	142
11	5764	0	142
12	13	0	13
12	192	0	90
12	281	0	111
12	745	0	121
12	1140	0	127
12	1272	0	128
12	1420	0	128
12	1498	0	128
12	1672	0	128
12	1688	0	128
12	1738	0	128
12	1914	0	128
12	1974	0	128
12	2572	0	133
12	2888	0	135
12	3016	0	135
12	3580	0	135
12	3836	0	135
12	4104	0	142
12	4316	0	142
12	4972	0	142
12	5080	0	142
12	5640	0	142
13	14	0	14
13	472	0	119
13	512	0	119
13	566	0	121
13	666	0	121
13	728	0	121
13	846	0	126
13	1216	0	127
13	1266	0	128
13	1422	0	128
13	1676	0	128
13	1796	0	128
13	1876	0	128
13	1892	0	128
13	1918	0	128
13	2020	0	129
13	2300	0	133
13	2332	0	133
13	2540	0	133
13	2618	0	133
13	2826	0	134
13	2934	0	135
13	3108	0	135
13	3224	0	135
13	3284	0	135
13	3684	0	135
13	3896	0	135
13	5188	0	142
13	5332	0	142
13	5368	0	142
13	5744	0	142
14	16	0	15
14	240	0	107
14	429	0	119
14	506	0	119
14	513	0	119
14	669	0	121
14	746	0	121
14	752	0	121
14	817	0	126
14	819	0	126
14	870	0	126
14	924	0	126
14	971	0	126
14	988	0	126
14	1192	0	127
14	1220	0	127
14	1256	0	128
14	1308	0	128
14	1784	0	128
14	2002	0	129
14	2150	0	132
14	2210	0	132
14	2348	0	133
14	2544	0	133
14	2574	0	133
14	2700	0	133
14	2822	0	134
14	3160	0	135
14	3704	0	135
14	4644	0	142
14	5288	0	142
14	5568	0	142
15	17	0	16
15	61	0	42
15	191	0	90
15	203	0	94
15	241	0	107
15	345	0	117
15	393	0	119
15	489	0	119
15	518	0	119
15	925	0	126
15	992	0	126
15	1126	0	127
15	1232	0	128
15	1684	0	128
15	1696	0	128
15	2024	0	129
15	2060	0	129
15	2138	0	132
15	2464	0	133
15	2474	0	133
15	2824	0	134
15	2912	0	135
15	2918	0	135
15	3412	0	135
15	3676	0	135
15	3712	0	135
15	5048	0	142
15	5320	0	142
15	5556	0	142
15	5756	0	142
16	19	0	17
16	22	0	18
16	491	0	119
16	508	0	119
16	644	0	121
16	657	0	121
16	700	0	121
16	719	0	121
16	818	0	126
16	919	0	126
16	1234	0	128
16	1278	0	128
16	1294	0	128
16	1706	0	128
16	1770	0	128
16	1790	0	128
16	2184	0	132
16	2188	0	132
16	2798	0	134
16	3080	0	135
16	3700	0	135
16	4052	0	142
16	4640	0	142
16	5552	0	142
16	5780	0	143
17	21	0	18
17	108	0	66
17	200	0	94
17	234	0	106
17	278	0	111
17	424	0	119
17	443	0	119
17	479	0	119
17	525	0	119
17	572	0	121
17	627	0	121
17	679	0	121
17	684	0	121
17	699	0	121
17	944	0	126
17	989	0	126
17	1070	0	126
17	1482	0	128
17	1642	0	128
17	1704	0	128
17	1754	0	128
17	1788	0	128
17	2118	0	132
17	2172	0	132
17	3248	0	135
17	3696	0	135
17	4024	0	142
17	4100	0	142
17	4140	0	142
17	4164	0	142
17	4280	0	142
17	4540	0	142
17	5460	0	142
18	23	0	19
18	101	0	64
18	117	0	71
18	401	0	119
18	471	0	119
18	558	0	121
18	624	0	121
18	685	0	121
18	814	0	126
18	858	0	126
18	881	0	126
18	884	0	126
18	888	0	126
18	1114	0	127
18	1196	0	127
18	2432	0	133
18	2458	0	133
18	2658	0	133
18	2758	0	133
18	3232	0	135
18	3612	0	135
18	3628	0	135
18	4116	0	142
18	4960	0	142
18	5532	0	142
18	5600	0	142
18	5732	0	142
18	5796	0	143
19	25	0	20
19	39	0	30
19	252	0	108
19	306	0	115
19	332	0	116
19	355	0	117
19	371	0	118
19	412	0	119
19	421	0	119
19	436	0	119
19	438	0	119
19	456	0	119
19	495	0	119
19	514	0	119
19	623	0	121
19	702	0	121
19	704	0	121
19	826	0	126
19	874	0	126
19	905	0	126
19	926	0	126
19	1224	0	127
19	1350	0	128
19	1926	0	128
19	2084	0	129
19	2218	0	132
19	2282	0	133
19	2498	0	133
19	2726	0	133
19	2760	0	133
19	2996	0	135
19	3404	0	135
19	3508	0	135
19	3672	0	135
19	4404	0	142
19	4412	0	142
19	5156	0	142
19	5492	0	142
19	5576	0	142
20	26	0	21
20	208	0	97
20	755	0	121
20	781	0	121
20	861	0	126
20	864	0	126
20	1342	0	128
20	1870	0	128
20	1986	0	128
20	2012	0	129
20	2324	0	133
20	2730	0	133
20	3796	0	135
20	4344	0	142
20	5264	0	142
21	27	0	22
21	380	0	118
21	388	0	119
21	397	0	119
21	430	0	119
21	476	0	119
21	488	0	119
21	611	0	121
21	676	0	121
21	709	0	121
21	731	0	121
21	735	0	121
21	754	0	121
21	868	0	126
21	970	0	126
21	994	0	126
21	1180	0	127
21	1284	0	128
21	1354	0	128
21	1368	0	128
21	1380	0	128
21	1568	0	128
21	1632	0	128
21	1678	0	128
21	1720	0	128
21	2206	0	132
21	2326	0	133
21	2370	0	133
21	2440	0	133
21	2616	0	133
21	2702	0	133
21	2720	0	133
21	2820	0	134
21	3268	0	135
21	4396	0	142
21	4660	0	142
21	4672	0	142
21	4992	0	142
21	5192	0	142
21	5596	0	142
21	5712	0	142
21	5736	0	142
22	28	0	23
22	584	0	121
22	636	0	121
22	692	0	121
22	815	0	126
22	915	0	126
22	940	0	126
22	974	0	126
22	1276	0	128
22	1312	0	128
22	1726	0	128
22	1912	0	128
22	2036	0	129
22	2334	0	133
22	2362	0	133
22	2424	0	133
22	2624	0	133
22	2632	0	133
22	2646	0	133
22	2708	0	133
22	3828	0	135
22	3840	0	135
22	4152	0	142
22	4364	0	142
22	4616	0	142
22	4956	0	142
22	5128	0	142
22	5164	0	142
22	5584	0	142
22	5636	0	142
23	29	0	24
23	49	0	37
23	223	0	101
23	300	0	115
23	408	0	119
23	432	0	119
23	510	0	119
23	539	0	121
23	565	0	121
23	975	0	126
23	1078	0	126
23	1242	0	128
23	1398	0	128
23	1656	0	128
23	1666	0	128
23	1774	0	128
23	1816	0	128
23	1894	0	128
23	2026	0	129
23	2168	0	132
23	2356	0	133
23	2712	0	133
23	2800	0	134
23	2908	0	135
23	3316	0	135
23	3396	0	135
23	3688	0	135
23	3992	0	142
23	4056	0	142
23	4228	0	142
23	5316	0	142
23	5340	0	142
24	30	0	25
24	32	0	26
24	57	0	40
24	276	0	111
24	425	0	119
24	446	0	119
24	641	0	121
24	671	0	121
24	687	0	121
24	695	0	121
24	1258	0	128
24	1358	0	128
24	1776	0	128
24	2394	0	133
24	2452	0	133
24	2562	0	133
24	2698	0	133
24	2788	0	134
24	2904	0	135
24	3176	0	135
24	3892	0	135
24	4128	0	142
24	4304	0	142
24	5424	0	142
25	31	0	26
25	48	0	37
25	109	0	66
25	298	0	115
25	301	0	115
25	311	0	115
25	314	0	115
25	492	0	119
25	653	0	121
25	724	0	121
25	942	0	126
25	977	0	126
25	1082	0	126
25	1468	0	128
25	1480	0	128
25	2042	0	129
25	2146	0	132
25	2870	0	135
25	2906	0	135
25	2924	0	135
25	4036	0	142
25	4124	0	142
25	4632	0	142
25	5472	0	142
26	33	0	27
26	50	0	37
26	210	0	97
26	213	0	97
26	248	0	107
26	370	0	118
26	482	0	119
26	511	0	119
26	559	0	121
26	675	0	121
26	706	0	121
26	800	0	126
26	891	0	126
26	907	0	126
26	1096	0	127
26	1136	0	127
26	1144	0	127
26	1184	0	127
26	1212	0	127
26	1438	0	128
26	1690	0	128
26	1976	0	128
26	2372	0	133
26	2414	0	133
26	2538	0	133
26	2748	0	133
26	3204	0	135
26	3228	0	135
26	4256	0	142
26	4368	0	142
26	4580	0	142
26	5052	0	142
26	5064	0	142
26	5084	0	142
26	5276	0	142
27	34	0	28
27	38	0	30
27	217	0	99
27	255	0	108
27	396	0	119
27	485	0	119
27	519	0	119
27	557	0	121
27	571	0	121
27	586	0	121
27	715	0	121
27	747	0	121
27	824	0	126
27	1146	0	127
27	1440	0	128
27	1694	0	128
27	1934	0	128
27	2136	0	132
27	2292	0	133
27	2316	0	133
27	2630	0	133
27	2882	0	135
27	3044	0	135
27	3100	0	135
27	3304	0	135
27	5588	0	142
27	5816	0	143
28	35	0	29
28	67	0	44
28	71	0	46
28	98	0	63
28	106	0	66
28	246	0	107
28	254	0	108
28	263	0	110
28	303	0	115
28	453	0	119
28	522	0	119
28	574	0	121
28	590	0	121
28	681	0	121
28	705	0	121
28	743	0	121
28	769	0	121
28	803	0	126
28	852	0	126
28	867	0	126
28	869	0	126
28	962	0	126
28	1288	0	128
28	1338	0	128
28	1410	0	128
28	1510	0	128
28	1764	0	128
28	1798	0	128
28	1844	0	128
28	1902	0	128
28	2016	0	129
28	2062	0	129
28	2088	0	129
28	2092	0	129
28	2224	0	132
28	2382	0	133
28	2428	0	133
28	2542	0	133
28	2668	0	133
28	2718	0	133
28	2900	0	135
28	2940	0	135
28	3024	0	135
28	3280	0	135
28	3576	0	135
28	3876	0	135
28	5268	0	142
28	5328	0	142
28	5560	0	142
28	5652	0	142
28	5752	0	142
28	5856	0	144
29	36	0	30
29	66	0	44
29	209	0	97
29	282	0	111
29	770	0	121
29	857	0	126
29	1214	0	127
29	1418	0	128
29	1872	0	128
29	1954	0	128
29	2246	0	132
29	2534	0	133
29	2772	0	133
29	3184	0	135
29	3820	0	135
29	4408	0	142
29	4480	0	142
29	4508	0	142
29	4520	0	142
29	5536	0	142
30	40	0	31
30	95	0	62
30	104	0	65
30	243	0	107
30	264	0	110
30	331	0	116
30	363	0	117
30	667	0	121
30	707	0	121
30	999	0	126
30	1052	0	126
30	1364	0	128
30	1504	0	128
30	1514	0	128
30	1566	0	128
30	1572	0	128
30	1628	0	128
30	2032	0	129
30	2284	0	133
30	2522	0	133
30	2648	0	133
30	4068	0	142
30	4804	0	142
30	4840	0	142
30	4948	0	142
30	5324	0	142
31	41	0	32
31	80	0	53
31	216	0	99
31	258	0	109
31	267	0	110
31	382	0	118
31	556	0	121
31	580	0	121
31	960	0	126
31	967	0	126
31	1162	0	127
31	1382	0	128
31	1698	0	128
31	1958	0	128
31	2056	0	129
31	2288	0	133
31	2342	0	133
31	2528	0	133
31	2742	0	133
31	2752	0	133
31	2920	0	135
31	3148	0	135
31	3276	0	135
31	3496	0	135
31	3636	0	135
31	4208	0	142
31	4448	0	142
31	5284	0	142
31	5720	0	142
32	43	0	33
32	237	0	106
32	296	0	115
32	328	0	116
32	330	0	116
32	337	0	117
32	352	0	117
32	473	0	119
32	487	0	119
32	507	0	119
32	691	0	121
32	732	0	121
32	748	0	121
32	820	0	126
32	922	0	126
32	953	0	126
32	1194	0	127
32	1252	0	128
32	1274	0	128
32	1328	0	128
32	1444	0	128
32	1508	0	128
32	1906	0	128
32	2038	0	129
32	2620	0	133
32	2628	0	133
32	2662	0	133
32	2754	0	133
32	3168	0	135
32	3604	0	135
32	3848	0	135
33	44	0	34
33	321	0	116
33	326	0	116
33	367	0	117
33	582	0	121
33	689	0	121
33	697	0	121
33	981	0	126
33	990	0	126
33	1314	0	128
33	1414	0	128
33	1432	0	128
33	1470	0	128
33	1490	0	128
33	1806	0	128
33	1966	0	128
33	2106	0	129
33	2196	0	132
33	2564	0	133
33	2790	0	134
33	2838	0	135
33	3132	0	135
33	3200	0	135
33	3660	0	135
33	4008	0	142
33	4136	0	142
33	4608	0	142
33	5168	0	142
34	45	0	35
34	637	0	121
34	3904	0	136
35	46	0	36
35	224	0	101
35	509	0	119
35	643	0	121
35	648	0	121
35	660	0	121
35	725	0	121
35	808	0	126
35	1394	0	128
35	4012	0	142
35	4284	0	142
36	47	0	37
36	313	0	115
36	632	0	121
36	639	0	121
36	720	0	121
36	1236	0	128
36	1450	0	128
36	1664	0	128
36	2796	0	134
36	2850	0	135
36	2856	0	135
36	3944	0	142
36	4600	0	142
37	51	0	38
37	304	0	115
37	323	0	116
37	394	0	119
37	483	0	119
37	585	0	121
37	654	0	121
37	677	0	121
37	768	0	121
37	813	0	126
37	872	0	126
37	973	0	126
37	1244	0	128
37	1324	0	128
37	1352	0	128
37	1682	0	128
37	1910	0	128
37	2066	0	129
37	2076	0	129
37	2080	0	129
37	2144	0	132
37	2176	0	132
37	2214	0	132
37	2470	0	133
37	2546	0	133
37	2606	0	133
37	2610	0	133
37	2672	0	133
37	3004	0	135
37	3040	0	135
37	3076	0	135
37	3092	0	135
37	3212	0	135
37	3504	0	135
37	4060	0	142
37	4360	0	142
37	4452	0	142
38	52	0	39
38	251	0	108
38	316	0	115
38	327	0	116
38	364	0	117
38	409	0	119
38	418	0	119
38	431	0	119
38	449	0	119
38	564	0	121
38	625	0	121
38	969	0	126
38	1208	0	127
38	1400	0	128
38	1734	0	128
38	1854	0	128
38	1862	0	128
38	1878	0	128
38	2340	0	133
38	2602	0	133
38	2654	0	133
38	2674	0	133
38	2932	0	135
38	3048	0	135
38	3124	0	135
38	3172	0	135
38	3252	0	135
38	3352	0	135
38	3592	0	135
38	3664	0	135
38	4232	0	142
38	4624	0	142
38	5040	0	142
38	5476	0	142
38	5748	0	142
38	5812	0	143
38	5836	0	144
39	54	0	40
39	198	0	93
39	324	0	116
39	486	0	119
39	490	0	119
39	517	0	119
39	635	0	121
39	877	0	126
39	946	0	126
39	1178	0	127
39	1188	0	127
39	1428	0	128
39	1446	0	128
39	1674	0	128
39	1722	0	128
39	1744	0	128
39	1810	0	128
39	2404	0	133
39	2408	0	133
39	2590	0	133
39	2738	0	133
39	2866	0	135
39	2930	0	135
39	3312	0	135
39	3388	0	135
39	4016	0	142
39	4168	0	142
39	4652	0	142
39	5308	0	142
39	5336	0	142
39	5464	0	142
39	5620	0	142
40	58	0	41
40	272	0	111
40	734	0	121
40	762	0	121
40	810	0	126
40	957	0	126
40	1206	0	127
40	1270	0	128
40	1302	0	128
40	1644	0	128
40	2114	0	132
40	2202	0	132
40	2296	0	133
40	2580	0	133
40	2656	0	133
40	2802	0	134
40	2910	0	135
40	3708	0	135
40	4260	0	142
41	60	0	42
41	79	0	53
41	121	0	72
41	353	0	117
41	451	0	119
41	457	0	119
41	469	0	119
41	481	0	119
41	515	0	119
41	714	0	121
41	963	0	126
41	1138	0	127
41	1716	0	128
41	1732	0	128
41	1960	0	128
41	2416	0	133
41	2652	0	133
41	2686	0	133
41	2716	0	133
41	3152	0	135
41	3428	0	135
41	3724	0	135
41	4576	0	142
41	4844	0	142
41	4892	0	142
41	4900	0	142
41	5096	0	142
41	5280	0	142
41	5580	0	142
42	63	0	43
42	228	0	102
42	428	0	119
42	649	0	121
42	663	0	121
42	726	0	121
42	1086	0	126
42	1466	0	128
42	1478	0	128
42	1484	0	128
42	2148	0	132
42	2180	0	132
42	2200	0	132
42	2878	0	135
42	3084	0	135
42	3328	0	135
42	4264	0	142
42	4272	0	142
42	4556	0	142
42	5352	0	142
42	5468	0	142
42	5776	0	143
43	64	0	44
43	628	0	121
43	661	0	121
43	1068	0	126
43	1204	0	127
43	1448	0	128
43	1660	0	128
43	1772	0	128
43	1786	0	128
43	1814	0	128
43	2122	0	132
43	2832	0	135
43	2846	0	135
43	2860	0	135
43	3344	0	135
43	4536	0	142
43	4548	0	142
43	4612	0	142
43	5356	0	142
44	68	0	45
44	70	0	46
44	253	0	108
44	333	0	116
44	555	0	121
44	776	0	121
44	779	0	121
44	783	0	121
44	863	0	126
44	1536	0	128
44	1762	0	128
44	1868	0	128
44	1980	0	128
44	2014	0	129
44	2492	0	133
44	2554	0	133
44	2728	0	133
44	2768	0	133
44	5496	0	142
44	5848	0	144
45	69	0	46
45	207	0	97
45	286	0	112
45	290	0	113
45	292	0	114
45	545	0	121
45	757	0	121
45	777	0	121
45	2556	0	133
45	3364	0	135
45	4476	0	142
45	4512	0	142
45	5256	0	142
46	72	0	47
46	97	0	63
46	129	0	76
46	141	0	80
46	177	0	88
46	376	0	118
46	601	0	121
46	609	0	121
46	616	0	121
46	904	0	126
46	936	0	126
46	1024	0	126
46	1374	0	128
46	1558	0	128
46	1622	0	128
46	3480	0	135
46	3488	0	135
46	3512	0	135
46	3752	0	135
46	3772	0	135
46	4420	0	142
46	4436	0	142
46	4720	0	142
46	4792	0	142
46	5108	0	142
46	5684	0	142
47	73	0	48
47	136	0	79
47	377	0	118
47	548	0	121
47	829	0	126
47	831	0	126
47	3484	0	135
47	3784	0	135
48	74	0	49
48	289	0	113
48	378	0	118
48	544	0	121
48	546	0	121
48	775	0	121
48	797	0	126
48	828	0	126
48	862	0	126
48	2552	0	133
48	3804	0	135
48	4516	0	142
48	5116	0	142
49	75	0	50
49	375	0	118
49	547	0	121
49	1048	0	126
49	1528	0	128
49	2248	0	132
49	2256	0	132
49	2280	0	133
49	4732	0	142
49	5112	0	142
50	76	0	51
50	81	0	53
50	134	0	79
50	927	0	126
50	932	0	126
50	1032	0	126
50	1376	0	128
50	1576	0	128
50	1842	0	128
50	2500	0	133
50	2976	0	135
50	3572	0	135
50	4796	0	142
50	5000	0	142
50	5020	0	142
51	77	0	52
51	85	0	56
51	122	0	72
51	128	0	76
51	139	0	80
51	155	0	86
51	576	0	121
51	1012	0	126
51	1028	0	126
51	1054	0	126
51	1532	0	128
51	1582	0	128
51	1608	0	128
51	3436	0	135
51	3548	0	135
51	3740	0	135
51	4820	0	142
51	5028	0	142
52	78	0	53
52	86	0	56
52	174	0	88
52	468	0	119
52	551	0	121
52	1520	0	128
52	1824	0	128
52	1834	0	128
52	2506	0	133
52	2650	0	133
52	3732	0	135
52	4848	0	142
52	4896	0	142
53	82	0	54
53	166	0	86
53	356	0	117
53	413	0	119
53	578	0	121
53	613	0	121
53	1046	0	126
53	1586	0	128
53	1830	0	128
53	2514	0	133
53	2518	0	133
53	2946	0	135
53	2986	0	135
53	3440	0	135
53	3456	0	135
53	3748	0	135
53	4416	0	142
53	4424	0	142
53	4432	0	142
53	4764	0	142
53	4776	0	142
53	4832	0	142
53	4872	0	142
53	4916	0	142
53	5676	0	142
54	83	0	55
54	592	0	121
54	602	0	121
54	930	0	126
54	935	0	126
54	1526	0	128
54	1554	0	128
54	1584	0	128
54	2254	0	132
54	2278	0	133
54	3540	0	135
54	3776	0	135
54	4692	0	142
54	4788	0	142
55	84	0	56
55	87	0	56
55	150	0	85
55	465	0	119
55	467	0	119
55	898	0	126
55	1004	0	126
55	1008	0	126
55	1550	0	128
55	1556	0	128
55	1836	0	128
55	2276	0	133
55	3560	0	135
55	4700	0	142
55	4708	0	142
55	4760	0	142
55	4780	0	142
55	4856	0	142
55	4924	0	142
56	88	0	57
56	124	0	73
56	460	0	119
56	1006	0	126
56	4704	0	142
57	89	0	58
57	91	0	59
57	161	0	86
57	183	0	88
57	607	0	121
57	2964	0	135
57	3472	0	135
58	90	0	59
59	92	0	60
59	163	0	86
59	185	0	88
59	358	0	117
59	594	0	121
59	1598	0	128
59	3464	0	135
59	5668	0	142
60	93	0	61
60	140	0	80
60	176	0	88
60	186	0	88
60	596	0	121
60	599	0	121
60	605	0	121
60	615	0	121
60	1542	0	128
60	2502	0	133
60	2978	0	135
60	2992	0	135
60	3736	0	135
60	4680	0	142
60	4716	0	142
60	4828	0	142
60	4880	0	142
60	5004	0	142
60	5104	0	142
61	94	0	62
61	598	0	121
61	614	0	121
61	899	0	126
61	1020	0	126
61	1034	0	126
61	1286	0	128
61	1540	0	128
61	1580	0	128
61	1616	0	128
61	1838	0	128
61	2270	0	133
61	2286	0	133
61	2724	0	133
61	2942	0	135
61	2994	0	135
61	4768	0	142
61	4824	0	142
61	4996	0	142
61	5100	0	142
61	5680	0	142
62	96	0	63
62	379	0	118
62	437	0	119
62	554	0	121
62	621	0	121
62	827	0	126
62	838	0	126
62	998	0	126
62	1050	0	126
62	1370	0	128
62	1512	0	128
62	1534	0	128
62	1538	0	128
62	1564	0	128
62	1578	0	128
62	2090	0	129
62	2490	0	133
62	3452	0	135
62	3792	0	135
62	4808	0	142
62	4816	0	142
62	4912	0	142
62	5120	0	142
62	5660	0	142
63	99	0	64
63	280	0	111
63	305	0	115
63	516	0	119
63	520	0	119
63	955	0	126
63	984	0	126
63	1154	0	127
63	1340	0	128
63	1496	0	128
63	1932	0	128
63	2008	0	129
63	2238	0	132
63	2312	0	133
63	2388	0	133
63	2478	0	133
63	2548	0	133
63	2594	0	133
63	2626	0	133
63	2670	0	133
63	2746	0	133
63	2804	0	134
63	3116	0	135
63	3156	0	135
63	4244	0	142
63	4340	0	142
63	4648	0	142
63	5124	0	142
63	5200	0	142
63	5220	0	142
63	5644	0	142
64	103	0	65
64	120	0	72
64	202	0	94
64	211	0	97
64	222	0	101
64	226	0	102
64	318	0	115
64	718	0	121
64	729	0	121
64	749	0	121
64	916	0	126
64	972	0	126
64	1150	0	127
64	1170	0	127
64	1210	0	127
64	1962	0	128
64	2040	0	129
64	2070	0	129
64	2604	0	133
64	2622	0	133
64	2684	0	133
64	2714	0	133
64	2926	0	135
64	3088	0	135
64	3872	0	135
64	4148	0	142
64	4980	0	142
64	5172	0	142
65	105	0	66
65	339	0	117
65	347	0	117
65	404	0	119
65	741	0	121
65	821	0	126
65	912	0	126
65	948	0	126
65	993	0	126
65	1092	0	127
65	1190	0	127
65	1846	0	128
65	1890	0	128
65	1898	0	128
65	1920	0	128
65	2074	0	129
65	2212	0	132
65	2236	0	132
65	2378	0	133
65	2406	0	133
65	2420	0	133
65	2446	0	133
65	2936	0	135
65	3068	0	135
65	3180	0	135
65	3644	0	135
65	4000	0	142
65	4172	0	142
65	4380	0	142
65	4988	0	142
65	5092	0	142
65	5132	0	142
65	5152	0	142
65	5208	0	142
65	5312	0	142
65	5444	0	142
65	5608	0	142
65	5648	0	142
66	110	0	67
66	342	0	117
66	344	0	117
66	423	0	119
66	445	0	119
66	656	0	121
66	683	0	121
66	701	0	121
66	765	0	121
66	855	0	126
66	1108	0	127
66	1296	0	128
66	1334	0	128
66	1426	0	128
66	1494	0	128
66	1708	0	128
66	1928	0	128
66	1942	0	128
66	1972	0	128
66	2006	0	129
66	2034	0	129
66	2044	0	129
66	2082	0	129
66	2166	0	132
66	2220	0	132
66	2592	0	133
66	2914	0	135
66	3416	0	135
66	3832	0	135
66	4144	0	142
66	4292	0	142
66	4328	0	142
66	4952	0	142
66	4984	0	142
66	5788	0	143
67	112	0	68
67	279	0	111
67	340	0	117
67	402	0	119
67	406	0	119
67	439	0	119
67	521	0	119
67	568	0	121
67	570	0	121
67	772	0	121
67	805	0	126
67	1120	0	127
67	1158	0	127
67	1174	0	127
67	1500	0	128
67	1730	0	128
67	1874	0	128
67	2010	0	129
67	2096	0	129
67	2142	0	132
67	2154	0	132
67	2162	0	132
67	2456	0	133
67	2486	0	133
67	2704	0	133
67	2762	0	133
67	2808	0	134
67	2842	0	135
67	3380	0	135
67	3420	0	135
67	3624	0	135
67	3856	0	135
67	3888	0	135
67	4028	0	142
67	4220	0	142
67	4664	0	142
67	5044	0	142
67	5228	0	142
67	5272	0	142
67	5528	0	142
67	5824	0	144
67	5832	0	144
68	114	0	69
68	193	0	90
68	322	0	116
68	336	0	117
68	426	0	119
68	455	0	119
68	484	0	119
68	498	0	119
68	541	0	121
68	655	0	121
68	678	0	121
68	859	0	126
68	876	0	126
68	878	0	126
68	889	0	126
68	1074	0	126
68	1116	0	127
68	1290	0	128
68	1886	0	128
68	2050	0	129
68	2194	0	132
68	2442	0	133
68	2476	0	133
68	2638	0	133
68	3656	0	135
68	3824	0	135
68	4084	0	142
68	4968	0	142
68	5068	0	142
68	5136	0	142
68	5540	0	142
69	115	0	70
69	694	0	121
69	785	0	121
69	790	0	125
69	795	0	126
69	2048	0	129
69	4188	0	142
69	5384	0	142
69	5428	0	142
69	5504	0	142
70	116	0	71
70	250	0	108
70	283	0	111
70	348	0	117
70	405	0	119
70	799	0	126
70	854	0	126
70	866	0	126
70	885	0	126
70	1802	0	128
70	1880	0	128
70	2046	0	129
70	2126	0	132
70	2310	0	133
70	2350	0	133
70	2430	0	133
70	2438	0	133
70	2810	0	134
70	4400	0	142
70	4668	0	142
70	5056	0	142
70	5724	0	142
70	5804	0	143
71	119	0	72
71	349	0	117
71	351	0	117
71	407	0	119
71	411	0	119
71	420	0	119
71	588	0	121
71	670	0	121
71	693	0	121
71	761	0	121
71	1306	0	128
71	1728	0	128
71	1752	0	128
71	1936	0	128
71	1950	0	128
71	2330	0	133
71	2358	0	133
71	2536	0	133
71	2756	0	133
71	3056	0	135
71	3256	0	135
71	3300	0	135
71	3356	0	135
71	3584	0	135
71	4076	0	142
71	4092	0	142
71	4356	0	142
71	5060	0	142
71	5224	0	142
72	123	0	73
72	131	0	77
72	159	0	86
72	165	0	86
72	169	0	87
72	359	0	117
72	459	0	119
72	461	0	119
72	463	0	119
72	608	0	121
72	1518	0	128
72	1524	0	128
72	1602	0	128
72	2966	0	135
72	3552	0	135
72	4440	0	142
72	4740	0	142
72	4748	0	142
72	4864	0	142
73	125	0	74
73	901	0	126
73	3556	0	135
73	4744	0	142
74	126	0	75
74	142	0	80
74	149	0	85
74	167	0	86
74	181	0	88
74	462	0	119
74	618	0	121
74	842	0	126
74	896	0	126
74	933	0	126
74	937	0	126
74	1000	0	126
74	1574	0	128
74	1592	0	128
74	1826	0	128
74	1840	0	128
74	2520	0	133
74	2950	0	135
74	3520	0	135
74	3544	0	135
74	4888	0	142
75	127	0	76
75	146	0	83
75	175	0	88
75	415	0	119
75	458	0	119
75	1522	0	128
75	1822	0	128
75	3728	0	135
76	130	0	77
76	575	0	121
76	837	0	126
76	839	0	126
76	1014	0	126
76	1038	0	126
76	1530	0	128
76	1624	0	128
76	2516	0	133
76	2944	0	135
76	2970	0	135
76	4724	0	142
76	4800	0	142
76	4836	0	142
76	4920	0	142
77	132	0	78
77	138	0	80
77	357	0	117
77	373	0	118
77	617	0	121
77	620	0	121
77	900	0	126
77	997	0	126
77	1548	0	128
77	1590	0	128
77	1600	0	128
77	1614	0	128
77	1828	0	128
77	2272	0	133
77	2960	0	135
77	4756	0	142
77	4812	0	142
77	5012	0	142
77	5024	0	142
78	133	0	79
78	135	0	79
78	384	0	118
78	549	0	121
78	832	0	126
78	834	0	126
78	836	0	126
78	902	0	126
78	929	0	126
78	1016	0	126
78	1022	0	126
78	1044	0	126
78	1594	0	128
78	2250	0	132
78	2512	0	133
78	3000	0	135
78	3448	0	135
78	3516	0	135
78	3528	0	135
78	3568	0	135
78	3780	0	135
78	4428	0	142
78	4696	0	142
78	4712	0	142
78	4784	0	142
78	5008	0	142
78	5692	0	142
79	137	0	80
79	386	0	119
79	903	0	126
79	996	0	126
79	1546	0	128
79	1562	0	128
79	1620	0	128
79	2258	0	132
79	2982	0	135
79	3536	0	135
79	5016	0	142
79	5704	0	142
80	143	0	81
80	172	0	88
80	593	0	121
80	595	0	121
80	597	0	121
80	606	0	121
80	934	0	126
80	1018	0	126
80	1042	0	126
80	1552	0	128
80	1596	0	128
80	2252	0	132
80	2268	0	133
80	2274	0	133
80	2948	0	135
80	2952	0	135
80	2958	0	135
80	2962	0	135
80	3524	0	135
81	144	0	82
81	152	0	86
81	164	0	86
81	182	0	88
81	466	0	119
81	833	0	126
81	1002	0	126
81	1544	0	128
81	1588	0	128
81	2262	0	133
81	2266	0	133
81	3460	0	135
81	4860	0	142
81	4876	0	142
81	5672	0	142
82	145	0	83
82	157	0	86
82	178	0	88
82	374	0	118
82	604	0	121
82	928	0	126
82	931	0	126
82	1040	0	126
82	1612	0	128
82	2510	0	133
82	2956	0	135
82	2972	0	135
82	2988	0	135
82	3744	0	135
82	4728	0	142
82	4772	0	142
82	4852	0	142
82	4908	0	142
82	5664	0	142
82	5688	0	142
83	147	0	84
83	154	0	86
83	156	0	86
83	160	0	86
83	162	0	86
83	180	0	88
83	184	0	88
83	550	0	121
83	552	0	121
83	600	0	121
83	603	0	121
83	619	0	121
83	835	0	126
83	1026	0	126
83	1030	0	126
83	1606	0	128
83	2968	0	135
83	3476	0	135
83	4684	0	142
83	4884	0	142
84	148	0	85
84	259	0	109
84	261	0	110
84	360	0	117
84	362	0	117
84	387	0	119
84	553	0	121
84	579	0	121
84	610	0	121
84	612	0	121
84	708	0	121
84	841	0	126
84	897	0	126
84	1036	0	126
84	1366	0	128
84	1372	0	128
84	1560	0	128
84	1618	0	128
84	1626	0	128
84	2980	0	135
84	2998	0	135
84	3756	0	135
84	3788	0	135
84	4676	0	142
84	5696	0	142
85	151	0	86
85	153	0	86
85	158	0	86
85	171	0	88
85	464	0	119
85	1604	0	128
85	3444	0	135
85	3468	0	135
85	3564	0	135
85	4928	0	142
86	168	0	87
86	262	0	110
86	372	0	118
86	383	0	118
86	577	0	121
86	591	0	121
86	995	0	126
86	1010	0	126
86	1378	0	128
86	1516	0	128
86	1570	0	128
86	2722	0	133
86	2974	0	135
86	2984	0	135
86	2990	0	135
86	3492	0	135
86	4444	0	142
86	4688	0	142
86	4736	0	142
86	5656	0	142
86	5700	0	142
86	5708	0	142
87	170	0	88
87	173	0	88
87	179	0	88
87	187	0	88
87	414	0	119
87	1610	0	128
87	1832	0	128
87	2504	0	133
87	2508	0	133
87	2954	0	135
87	4752	0	142
87	4868	0	142
87	4932	0	142
88	188	0	89
88	416	0	119
88	843	0	126
88	895	0	126
88	938	0	126
88	1670	0	128
88	1820	0	128
88	2078	0	129
88	4904	0	142
88	4936	0	142
88	5032	0	142
89	190	0	90
89	266	0	110
89	346	0	117
89	713	0	121
89	939	0	126
89	950	0	126
89	956	0	126
89	1128	0	127
89	1168	0	127
89	1172	0	127
89	1406	0	128
89	1766	0	128
89	1884	0	128
89	1888	0	128
89	1924	0	128
89	2068	0	129
89	2112	0	131
89	2156	0	132
89	2532	0	133
89	2884	0	135
89	3208	0	135
89	4064	0	142
89	4384	0	142
89	4964	0	142
89	5088	0	142
89	5196	0	142
89	5572	0	142
90	194	0	91
90	238	0	106
90	275	0	111
90	474	0	119
90	527	0	119
90	529	0	119
90	536	0	121
90	696	0	121
90	767	0	121
90	1088	0	126
90	1104	0	127
90	1228	0	128
90	1386	0	128
90	1692	0	128
90	1740	0	128
90	1748	0	128
90	1916	0	128
90	1964	0	128
90	2108	0	129
90	2454	0	133
90	2570	0	133
90	2596	0	133
90	2844	0	135
90	2880	0	135
90	3036	0	135
90	3852	0	135
90	4040	0	142
90	4120	0	142
90	4156	0	142
90	4336	0	142
90	4392	0	142
90	5628	0	142
90	5760	0	142
91	195	0	92
91	634	0	121
91	809	0	126
91	1300	0	128
91	1396	0	128
91	1460	0	128
91	1742	0	128
91	2568	0	133
91	2836	0	135
91	3320	0	135
91	3340	0	135
91	3952	0	142
91	5768	0	142
92	196	0	93
92	229	0	102
92	277	0	111
92	312	0	115
92	651	0	121
92	722	0	121
92	1650	0	128
92	1658	0	128
92	2794	0	134
92	2852	0	135
92	2868	0	135
92	3240	0	135
93	199	0	94
93	530	0	119
93	629	0	121
93	645	0	121
93	723	0	121
93	2198	0	132
93	2876	0	135
93	4276	0	142
93	5344	0	142
94	204	0	95
94	212	0	97
94	319	0	115
94	505	0	119
94	542	0	121
94	680	0	121
94	738	0	121
94	804	0	126
94	848	0	126
94	856	0	126
94	1062	0	126
94	1124	0	127
94	1198	0	127
94	1260	0	128
94	1304	0	128
94	1356	0	128
94	1416	0	128
94	1680	0	128
94	1858	0	128
94	2130	0	132
94	2204	0	132
94	2368	0	133
94	2398	0	133
94	2436	0	133
94	2530	0	133
94	2818	0	134
94	2886	0	135
94	2898	0	135
94	3020	0	135
94	3028	0	135
94	4132	0	142
94	5512	0	142
94	5808	0	143
95	205	0	96
95	496	0	119
95	499	0	119
95	673	0	121
95	760	0	121
95	791	0	125
95	796	0	126
95	801	0	126
95	959	0	126
95	1182	0	127
95	1264	0	128
95	2086	0	129
95	2128	0	132
95	2242	0	132
96	206	0	97
96	285	0	112
96	780	0	121
96	1982	0	128
96	3616	0	135
96	4176	0	142
96	5072	0	142
96	5500	0	142
97	214	0	98
97	309	0	115
97	448	0	119
97	674	0	121
97	730	0	121
97	812	0	126
97	886	0	126
97	911	0	126
97	923	0	126
97	1142	0	127
97	1156	0	127
97	1322	0	128
97	1800	0	128
97	1946	0	128
97	2064	0	129
97	2208	0	132
97	2216	0	132
97	2244	0	132
97	2314	0	133
97	2338	0	133
97	2364	0	133
97	2402	0	133
97	2472	0	133
97	2488	0	133
97	2600	0	133
97	3376	0	135
97	4196	0	142
97	4332	0	142
97	4456	0	142
97	4944	0	142
97	5216	0	142
97	5592	0	142
98	215	0	99
98	703	0	121
98	742	0	121
98	758	0	121
98	782	0	121
98	784	0	121
98	853	0	126
98	887	0	126
98	1060	0	126
98	1112	0	127
98	1760	0	128
98	1930	0	128
98	2222	0	132
98	2240	0	132
98	2306	0	133
98	2366	0	133
98	2450	0	133
98	2526	0	133
98	2736	0	133
98	2740	0	133
98	2764	0	133
98	3372	0	135
98	3816	0	135
98	4192	0	142
98	4240	0	142
98	4472	0	142
98	4492	0	142
98	5380	0	142
98	5840	0	144
98	5860	0	145
99	219	0	100
99	265	0	110
99	494	0	119
99	537	0	121
99	567	0	121
99	879	0	126
99	882	0	126
99	947	0	126
99	1094	0	127
99	1330	0	128
99	1390	0	128
99	1404	0	128
99	1436	0	128
99	1668	0	128
99	1686	0	128
99	1768	0	128
99	1818	0	128
99	2290	0	133
99	2344	0	133
99	2360	0	133
99	2386	0	133
99	2644	0	133
99	2680	0	133
99	2894	0	135
99	3880	0	135
99	4248	0	142
99	4296	0	142
100	221	0	101
100	302	0	115
100	441	0	119
100	452	0	119
100	493	0	119
100	711	0	121
100	753	0	121
100	763	0	121
100	949	0	126
100	987	0	126
100	991	0	126
100	1118	0	127
100	1132	0	127
100	1186	0	127
100	1230	0	128
100	1384	0	128
100	1702	0	128
100	1756	0	128
100	2018	0	129
100	2030	0	129
100	2586	0	133
100	2660	0	133
100	2828	0	135
100	2896	0	135
100	2938	0	135
100	3424	0	135
100	3720	0	135
100	4112	0	142
100	4204	0	142
100	4376	0	142
100	4572	0	142
100	5456	0	142
100	5516	0	142
101	225	0	102
101	270	0	111
101	626	0	121
101	1064	0	126
101	1240	0	128
101	1646	0	128
101	2104	0	129
101	2164	0	132
101	2232	0	132
101	2298	0	133
101	2578	0	133
101	2862	0	135
101	3236	0	135
101	3980	0	142
101	4096	0	142
101	4584	0	142
101	5144	0	142
101	5176	0	142
101	5184	0	142
101	5232	0	142
101	5248	0	142
101	5360	0	142
101	5436	0	142
101	5612	0	142
101	5632	0	142
101	5828	0	144
102	230	0	103
102	980	0	126
102	1454	0	128
102	1462	0	128
102	1472	0	128
102	2834	0	135
102	2858	0	135
102	3964	0	142
102	4596	0	142
103	231	0	104
103	531	0	119
103	630	0	121
103	1452	0	128
103	3940	0	142
104	232	0	105
104	1084	0	126
104	1456	0	128
104	1474	0	128
104	1662	0	128
104	2792	0	134
104	3336	0	135
104	4048	0	142
105	233	0	106
105	647	0	121
105	658	0	121
105	721	0	121
105	978	0	126
105	2186	0	132
105	2854	0	135
105	2872	0	135
105	3332	0	135
105	4636	0	142
105	5348	0	142
106	239	0	107
106	299	0	115
106	528	0	119
106	534	0	121
106	638	0	121
106	917	0	126
106	1458	0	128
106	1746	0	128
106	3244	0	135
106	5772	0	143
107	249	0	108
107	288	0	113
107	381	0	118
107	503	0	119
107	739	0	121
107	773	0	121
107	1222	0	127
107	1866	0	128
107	1978	0	128
107	2494	0	133
107	3360	0	135
107	4236	0	142
107	4488	0	142
107	5564	0	142
107	5852	0	144
108	256	0	109
108	273	0	111
108	307	0	115
108	329	0	116
108	341	0	117
108	343	0	117
108	433	0	119
108	435	0	119
108	561	0	121
108	710	0	121
108	890	0	126
108	921	0	126
108	958	0	126
108	1362	0	128
108	1402	0	128
108	1654	0	128
108	1750	0	128
108	2054	0	129
108	2110	0	130
108	2158	0	132
108	2412	0	133
108	2480	0	133
108	2484	0	133
108	2584	0	133
108	2642	0	133
108	2688	0	133
108	2692	0	133
108	2696	0	133
108	3052	0	135
108	3140	0	135
108	3996	0	142
108	4020	0	142
108	4348	0	142
108	4388	0	142
108	4528	0	142
109	260	0	110
109	361	0	117
109	840	0	126
109	3760	0	135
109	3768	0	135
110	269	0	111
110	366	0	117
110	427	0	119
110	480	0	119
110	535	0	121
110	569	0	121
110	764	0	121
110	845	0	126
110	968	0	126
110	1066	0	126
110	1122	0	127
110	1392	0	128
110	1718	0	128
110	1900	0	128
110	1970	0	128
110	2102	0	129
110	2666	0	133
110	2676	0	133
110	2922	0	135
110	3064	0	135
110	3104	0	135
110	3216	0	135
110	3296	0	135
110	3500	0	135
110	3680	0	135
110	4268	0	142
110	5204	0	142
110	5212	0	142
111	284	0	112
111	335	0	117
111	497	0	119
111	504	0	119
111	778	0	121
111	1848	0	128
111	1952	0	128
111	1984	0	128
111	2434	0	133
111	2766	0	133
111	2774	0	133
111	2812	0	134
111	2816	0	134
111	4088	0	142
111	5448	0	142
111	5728	0	142
112	287	0	113
112	500	0	119
112	502	0	119
112	756	0	121
112	798	0	126
112	2732	0	133
113	291	0	114
113	850	0	126
113	860	0	126
113	1344	0	128
113	1988	0	128
113	2308	0	133
113	4500	0	142
113	5260	0	142
113	5844	0	144
114	293	0	115
114	400	0	119
114	434	0	119
114	740	0	121
114	759	0	121
114	802	0	126
114	849	0	126
114	1778	0	128
114	2000	0	129
114	2052	0	129
114	2322	0	133
114	2374	0	133
114	2396	0	133
114	3272	0	135
114	3368	0	135
114	3588	0	135
114	3620	0	135
114	3812	0	135
114	5372	0	142
114	5524	0	142
114	5604	0	142
114	5716	0	142
114	5800	0	143
115	320	0	116
115	478	0	119
115	523	0	119
115	563	0	121
115	672	0	121
115	823	0	126
115	847	0	126
115	945	0	126
115	1164	0	127
115	1250	0	128
115	1262	0	128
115	1408	0	128
115	1492	0	128
115	1724	0	128
115	1804	0	128
115	1808	0	128
115	1856	0	128
115	1882	0	128
115	2004	0	129
115	2152	0	132
115	2228	0	132
115	2234	0	132
115	2302	0	133
115	2426	0	133
115	2710	0	133
115	3264	0	135
115	3596	0	135
115	3632	0	135
115	4004	0	142
115	4200	0	142
115	5364	0	142
116	334	0	117
116	501	0	119
116	543	0	121
116	622	0	121
116	774	0	121
116	851	0	126
116	875	0	126
116	983	0	126
116	1948	0	128
116	1956	0	128
116	2098	0	129
116	2160	0	132
116	2328	0	133
116	2496	0	133
116	2550	0	133
116	2694	0	133
116	2734	0	133
116	2770	0	133
116	3800	0	135
116	3808	0	135
116	4468	0	142
116	4504	0	142
116	4524	0	142
117	368	0	118
117	640	0	121
117	652	0	121
117	659	0	121
117	1238	0	128
117	1648	0	128
117	1812	0	128
117	2864	0	135
117	2874	0	135
117	4592	0	142
117	4604	0	142
117	5616	0	142
118	385	0	119
118	830	0	126
118	3532	0	135
119	532	0	120
119	631	0	121
119	633	0	121
119	979	0	126
119	1476	0	128
119	2848	0	135
119	3948	0	142
120	533	0	121
120	646	0	121
120	650	0	121
120	662	0	121
120	918	0	126
120	1464	0	128
120	1488	0	128
120	2182	0	132
120	2566	0	133
120	3956	0	142
120	3972	0	142
120	4044	0	142
120	4160	0	142
120	4552	0	142
120	4564	0	142
120	5624	0	142
121	786	0	122
121	2560	0	133
121	2780	0	133
121	2786	0	134
121	5180	0	142
121	5236	0	142
121	5244	0	142
121	5388	0	142
121	5404	0	142
121	5420	0	142
122	787	0	123
123	788	0	124
123	5400	0	142
123	5412	0	142
124	789	0	125
124	793	0	126
124	2778	0	133
124	2784	0	134
124	4184	0	142
124	5432	0	142
125	792	0	126
125	794	0	126
125	1990	0	128
125	1998	0	129
125	2558	0	133
125	2776	0	133
125	2814	0	134
125	4180	0	142
125	4496	0	142
125	5252	0	142
125	5508	0	142
126	1992	0	128
126	1996	0	129
127	1994	0	129
128	2260	0	133
128	2264	0	133
129	2782	0	134
129	5408	0	142
129	5416	0	142
130	3764	0	135
131	3908	0	137
132	3912	0	138
132	3920	0	139
133	3916	0	139
134	3924	0	140
135	3928	0	141
135	3936	0	142
136	3932	0	142
137	3960	0	142
137	3968	0	142
138	5240	0	142
138	5396	0	142
139	5392	0	142

