version 3
run General-187-20250904-14:13:17-15512
attr configname General
attr datetime 20250904-14:13:17
attr datetimef 20250904-141317
attr experiment General
attr inifile omnetpp.ini
attr iterationvars ""
attr iterationvarsd ""
attr iterationvarsf ""
attr measurement ""
attr network TaxiNetwork
attr processid 15512
attr repetition 187
attr replication #187
attr resultdir results
attr runnumber 187
attr seedset 187
config network TaxiNetwork
config seed-set 187
config num-rngs 1
config sim-time-limit 10s
config repeat 500
config *.numWalkers 1
config *.enableDuplication true
config *.rc 700
config **.node[0].xCor 2933
config **.node[0].yCor 2747
config **.node[1].xCor 2919
config **.node[1].yCor 2817
config **.node[2].xCor 2910
config **.node[2].yCor 2861
config **.node[3].xCor 2429
config **.node[3].yCor 2851
config **.node[4].xCor 2908
config **.node[4].yCor 2714
config **.node[5].xCor 2606
config **.node[5].yCor 2722
config **.node[6].xCor 2575
config **.node[6].yCor 2753
config **.node[7].xCor 2654
config **.node[7].yCor 2513
config **.node[8].xCor 2773
config **.node[8].yCor 2580
config **.node[9].xCor 3043
config **.node[9].yCor 2780
config **.node[10].xCor 3020
config **.node[10].yCor 2813
config **.node[11].xCor 2599
config **.node[11].yCor 2300
config **.node[12].xCor 2917
config **.node[12].yCor 2698
config **.node[13].xCor 2625
config **.node[13].yCor 2641
config **.node[14].xCor 2604
config **.node[14].yCor 2790
config **.node[15].xCor 2786
config **.node[15].yCor 3082
config **.node[16].xCor 2603
config **.node[16].yCor 2802
config **.node[17].xCor 2637
config **.node[17].yCor 2869
config **.node[18].xCor 2675
config **.node[18].yCor 2955
config **.node[19].xCor 2845
config **.node[19].yCor 2937
config **.node[20].xCor 2860
config **.node[20].yCor 2888
config **.node[21].xCor 2843
config **.node[21].yCor 4158
config **.node[22].xCor 2852
config **.node[22].yCor 4017
config **.node[23].xCor 2892
config **.node[23].yCor 4961
config **.node[24].xCor 2313
config **.node[24].yCor 3993
config **.node[25].xCor 2891
config **.node[25].yCor 4959
config **.node[26].xCor 2370
config **.node[26].yCor 4050
config **.node[27].xCor 2788
config **.node[27].yCor 3958
config **.node[28].xCor 2819
config **.node[28].yCor 4428
config **.node[29].xCor 2790
config **.node[29].yCor 3761
config **.node[30].xCor 2809
config **.node[30].yCor 2908
config **.node[31].xCor 2919
config **.node[31].yCor 3575
config **.node[32].xCor 2946
config **.node[32].yCor 3466
config **.node[33].xCor 2911
config **.node[33].yCor 3453
config **.node[34].xCor 2370
config **.node[34].yCor 3656
config **.node[35].xCor 2438
config **.node[35].yCor 3738
config **.node[36].xCor 2737
config **.node[36].yCor 3570
config **.node[37].xCor 2921
config **.node[37].yCor 3698
config **.node[38].xCor 2907
config **.node[38].yCor 5197
config **.node[39].xCor 2860
config **.node[39].yCor 3852
config **.node[40].xCor 2927
config **.node[40].yCor 3684
config **.node[41].xCor 3023
config **.node[41].yCor 5313
config **.node[42].xCor 3220
config **.node[42].yCor 5811
config **.node[43].xCor 3432
config **.node[43].yCor 5715
config **.node[44].xCor 2754
config **.node[44].yCor 2463
config **.node[45].xCor 2646
config **.node[45].yCor 2673
config **.node[46].xCor 3051
config **.node[46].yCor 2792
config **.node[47].xCor 1666
config **.node[47].yCor 3697
config **.node[48].xCor 1662
config **.node[48].yCor 3694
config **.node[49].xCor 1664
config **.node[49].yCor 3667
config **.node[50].xCor 1660
config **.node[50].yCor 3664
config **.node[51].xCor 1710
config **.node[51].yCor 3573
config **.node[52].xCor 2082
config **.node[52].yCor 2650
config **.node[53].xCor 2086
config **.node[53].yCor 2657
config **.node[54].xCor 2257
config **.node[54].yCor 3232
config **.node[55].xCor 2258
config **.node[55].yCor 3225
config **.node[56].xCor 1926
config **.node[56].yCor 2570
config **.node[57].xCor 1926
config **.node[57].yCor 2576
config **.node[58].xCor 2104
config **.node[58].yCor 1758
config **.node[59].xCor 1957
config **.node[59].yCor 1826
config **.node[60].xCor 3473
config **.node[60].yCor 1523
config **.node[61].xCor 3335
config **.node[61].yCor 1726
config **.node[62].xCor 3478
config **.node[62].yCor 1517
config **.node[63].xCor 3386
config **.node[63].yCor 2119
config **.node[64].xCor 3474
config **.node[64].yCor 1762
config **.node[65].xCor 3797
config **.node[65].yCor 2099
config **.node[66].xCor 3642
config **.node[66].yCor 2136
config **.node[67].xCor 3481
config **.node[67].yCor 2334
config **.node[68].xCor 3088
config **.node[68].yCor 1505
config **.node[69].xCor 3037
config **.node[69].yCor 1693
config **.node[70].xCor 3026
config **.node[70].yCor 1700
config **.node[71].xCor 3019
config **.node[71].yCor 669
config **.node[72].xCor 3513
config **.node[72].yCor 1358
config **.node[73].xCor 3545
config **.node[73].yCor 1230
config **.node[74].xCor 4228
config **.node[74].yCor 4220
config **.node[75].xCor 3379
config **.node[75].yCor 1207
config **.node[76].xCor 3596
config **.node[76].yCor 963
config **.node[77].xCor 3637
config **.node[77].yCor 1188
config **.node[78].xCor 3759
config **.node[78].yCor 1030
config **.node[79].xCor 2918
config **.node[79].yCor 1455
config **.node[80].xCor 2711
config **.node[80].yCor 1297
config **.node[81].xCor 439
config **.node[81].yCor 1623
config **.node[82].xCor 2857
config **.node[82].yCor 3581
config **.node[83].xCor 2858
config **.node[83].yCor 3584
config **.node[84].xCor 2999
config **.node[84].yCor 2636
config **.node[85].xCor 2905
config **.node[85].yCor 2778
config **.node[86].xCor 2653
config **.node[86].yCor 2845
config **.node[87].xCor 2864
config **.node[87].yCor 2836
config **.node[88].xCor 2426
config **.node[88].yCor 2892
config **.node[89].xCor 2964
config **.node[89].yCor 2804
config **.node[90].xCor 2586
config **.node[90].yCor 3135
config **.node[91].xCor 2864
config **.node[91].yCor 2980
config **.node[92].xCor 2527
config **.node[92].yCor 3219
config **.node[93].xCor 2863
config **.node[93].yCor 3142
config **.node[94].xCor 2485
config **.node[94].yCor 3269
config **.node[95].xCor 2653
config **.node[95].yCor 1065
config **.node[96].xCor 4062
config **.node[96].yCor 400
config **.node[97].xCor 5762
config **.node[97].yCor 3023
config **.node[98].xCor 1414
config **.node[98].yCor 3461
config **.node[99].xCor 2911
config **.node[99].yCor 1737
config **.node[100].xCor 2595
config **.node[100].yCor 2299
config **.node[101].xCor 2702
config **.node[101].yCor 3419
config **.node[102].xCor 2813
config **.node[102].yCor 3307
config **.node[103].xCor 2638
config **.node[103].yCor 2258
config **.node[104].xCor 2590
config **.node[104].yCor 3125
config **.node[105].xCor 1856
config **.node[105].yCor 2990
config **.node[106].xCor 1894
config **.node[106].yCor 2239
config **.node[107].xCor 383
config **.node[107].yCor 1251
config **.node[108].xCor 3447
config **.node[108].yCor 5489
config **.node[109].xCor 3450
config **.node[109].yCor 5697
config **.node[110].xCor 2719
config **.node[110].yCor 1920
config **.node[111].xCor 2085
config **.node[111].yCor 2389
config **.node[112].xCor 1910
config **.node[112].yCor 2548
config **.node[113].xCor 2069
config **.node[113].yCor 2050
config **.node[114].xCor 2184
config **.node[114].yCor 2209
config **.node[115].xCor 2278
config **.node[115].yCor 2390
config **.node[116].xCor 2249
config **.node[116].yCor 2299
config **.node[117].xCor 2356
config **.node[117].yCor 2303
config **.node[118].xCor 2192
config **.node[118].yCor 2475
config **.node[119].xCor 1720
config **.node[119].yCor 2911
config **.node[120].xCor 2400
config **.node[120].yCor 2887
config **.node[121].xCor 3344
config **.node[121].yCor 1890
config **.node[122].xCor 3136
config **.node[122].yCor 2418
config **.node[123].xCor 3243
config **.node[123].yCor 2525
config **.node[124].xCor 2396
config **.node[124].yCor 1267
config **.node[125].xCor 467
config **.node[125].yCor 1875
config **.node[126].xCor 3506
config **.node[126].yCor 1221
config **.node[127].xCor 1034
config **.node[127].yCor 1474
config **.node[128].xCor 2908
config **.node[128].yCor 1784
config **.node[129].xCor 2876
config **.node[129].yCor 1761
config **.node[130].xCor 2849
config **.node[130].yCor 1795
config **.node[131].xCor 3029
config **.node[131].yCor 1859
config **.node[132].xCor 2924
config **.node[132].yCor 1848
config **.node[133].xCor 3493
config **.node[133].yCor 1559
config **.node[134].xCor 2760
config **.node[134].yCor 1761
config **.node[135].xCor 1644
config **.node[135].yCor 3755
config **.node[136].xCor 1463
config **.node[136].yCor 3432
config **.node[137].xCor 2595
config **.node[137].yCor 2849
config **.node[138].xCor 2581
config **.node[138].yCor 2867
config **.node[139].xCor 2524
config **.node[139].yCor 2911
config **.node[140].xCor 2570
config **.node[140].yCor 2924
config **.node[141].xCor 2676
config **.node[141].yCor 2890
config **.node[142].xCor 2666
config **.node[142].yCor 2876
config **.node[143].xCor 3735
config **.node[143].yCor 1726
config **.node[144].xCor 1637
config **.node[144].yCor 3438

vector 0 TaxiNetwork.node[117] visitedPerTimestep ETV
vector 1 TaxiNetwork.node[115] visitedPerTimestep ETV
vector 2 TaxiNetwork.node[59] visitedPerTimestep ETV
vector 3 TaxiNetwork.node[58] visitedPerTimestep ETV
vector 4 TaxiNetwork.node[111] visitedPerTimestep ETV
vector 5 TaxiNetwork.node[52] visitedPerTimestep ETV
vector 6 TaxiNetwork.node[114] visitedPerTimestep ETV
vector 7 TaxiNetwork.node[103] visitedPerTimestep ETV
vector 8 TaxiNetwork.node[69] visitedPerTimestep ETV
vector 9 TaxiNetwork.node[80] visitedPerTimestep ETV
vector 10 TaxiNetwork.node[129] visitedPerTimestep ETV
vector 11 TaxiNetwork.node[61] visitedPerTimestep ETV
vector 12 TaxiNetwork.node[133] visitedPerTimestep ETV
vector 13 TaxiNetwork.node[143] visitedPerTimestep ETV
vector 14 TaxiNetwork.node[60] visitedPerTimestep ETV
vector 15 TaxiNetwork.node[62] visitedPerTimestep ETV
vector 16 TaxiNetwork.node[66] visitedPerTimestep ETV
vector 17 TaxiNetwork.node[63] visitedPerTimestep ETV
vector 18 TaxiNetwork.node[67] visitedPerTimestep ETV
vector 19 TaxiNetwork.node[68] visitedPerTimestep ETV
vector 20 TaxiNetwork.node[70] visitedPerTimestep ETV
vector 21 TaxiNetwork.node[99] visitedPerTimestep ETV
vector 22 TaxiNetwork.node[132] visitedPerTimestep ETV
vector 23 TaxiNetwork.node[64] visitedPerTimestep ETV
vector 24 TaxiNetwork.node[73] visitedPerTimestep ETV
vector 25 TaxiNetwork.node[79] visitedPerTimestep ETV
vector 26 TaxiNetwork.node[127] visitedPerTimestep ETV
vector 27 TaxiNetwork.node[107] visitedPerTimestep ETV
vector 28 TaxiNetwork.node[134] visitedPerTimestep ETV
vector 29 TaxiNetwork.node[131] visitedPerTimestep ETV
vector 30 TaxiNetwork.node[75] visitedPerTimestep ETV
vector 31 TaxiNetwork.node[71] visitedPerTimestep ETV
vector 32 TaxiNetwork.node[95] visitedPerTimestep ETV
vector 33 TaxiNetwork.node[126] visitedPerTimestep ETV
vector 34 TaxiNetwork.node[76] visitedPerTimestep ETV
vector 35 TaxiNetwork.node[121] visitedPerTimestep ETV
vector 36 TaxiNetwork.node[128] visitedPerTimestep ETV
vector 37 TaxiNetwork.node[10] visitedPerTimestep ETV
vector 38 TaxiNetwork.node[9] visitedPerTimestep ETV
vector 39 TaxiNetwork.node[87] visitedPerTimestep ETV
vector 40 TaxiNetwork.node[94] visitedPerTimestep ETV
vector 41 TaxiNetwork.node[104] visitedPerTimestep ETV
vector 42 TaxiNetwork.node[82] visitedPerTimestep ETV
vector 43 TaxiNetwork.node[27] visitedPerTimestep ETV
vector 44 TaxiNetwork.node[74] visitedPerTimestep ETV
vector 45 TaxiNetwork.node[101] visitedPerTimestep ETV
vector 46 TaxiNetwork.node[3] visitedPerTimestep ETV
vector 47 TaxiNetwork.node[91] visitedPerTimestep ETV
vector 48 TaxiNetwork.node[6] visitedPerTimestep ETV
vector 49 TaxiNetwork.node[120] visitedPerTimestep ETV
vector 50 TaxiNetwork.node[36] visitedPerTimestep ETV
vector 51 TaxiNetwork.node[142] visitedPerTimestep ETV
vector 52 TaxiNetwork.node[92] visitedPerTimestep ETV
vector 53 TaxiNetwork.node[93] visitedPerTimestep ETV
vector 54 TaxiNetwork.node[88] visitedPerTimestep ETV
vector 55 TaxiNetwork.node[116] visitedPerTimestep ETV
vector 56 TaxiNetwork.node[57] visitedPerTimestep ETV
vector 57 TaxiNetwork.node[105] visitedPerTimestep ETV
vector 58 TaxiNetwork.node[119] visitedPerTimestep ETV
vector 59 TaxiNetwork.node[144] visitedPerTimestep ETV
vector 60 TaxiNetwork.node[48] visitedPerTimestep ETV
vector 61 TaxiNetwork.node[53] visitedPerTimestep ETV
vector 62 TaxiNetwork.node[118] visitedPerTimestep ETV
vector 63 TaxiNetwork.node[11] visitedPerTimestep ETV
vector 64 TaxiNetwork.node[8] visitedPerTimestep ETV
vector 65 TaxiNetwork.node[86] visitedPerTimestep ETV
vector 66 TaxiNetwork.node[14] visitedPerTimestep ETV
vector 67 TaxiNetwork.node[16] visitedPerTimestep ETV
vector 68 TaxiNetwork.node[19] visitedPerTimestep ETV
vector 69 TaxiNetwork.node[124] visitedPerTimestep ETV
vector 70 TaxiNetwork.node[130] visitedPerTimestep ETV
vector 71 TaxiNetwork.node[65] visitedPerTimestep ETV
vector 72 TaxiNetwork.node[110] visitedPerTimestep ETV
vector 73 TaxiNetwork.node[90] visitedPerTimestep ETV
vector 74 TaxiNetwork.node[46] visitedPerTimestep ETV
vector 75 TaxiNetwork.node[5] visitedPerTimestep ETV
vector 76 TaxiNetwork.node[139] visitedPerTimestep ETV
vector 77 TaxiNetwork.node[15] visitedPerTimestep ETV
vector 78 TaxiNetwork.node[18] visitedPerTimestep ETV
vector 79 TaxiNetwork.node[138] visitedPerTimestep ETV
vector 80 TaxiNetwork.node[12] visitedPerTimestep ETV
vector 81 TaxiNetwork.node[2] visitedPerTimestep ETV
vector 82 TaxiNetwork.node[113] visitedPerTimestep ETV
vector 83 TaxiNetwork.node[100] visitedPerTimestep ETV
vector 84 TaxiNetwork.node[7] visitedPerTimestep ETV
vector 85 TaxiNetwork.node[21] visitedPerTimestep ETV
vector 86 TaxiNetwork.node[31] visitedPerTimestep ETV
vector 87 TaxiNetwork.node[29] visitedPerTimestep ETV
vector 88 TaxiNetwork.node[28] visitedPerTimestep ETV
vector 89 TaxiNetwork.node[32] visitedPerTimestep ETV
vector 90 TaxiNetwork.node[24] visitedPerTimestep ETV
vector 91 TaxiNetwork.node[83] visitedPerTimestep ETV
vector 92 TaxiNetwork.node[30] visitedPerTimestep ETV
vector 93 TaxiNetwork.node[137] visitedPerTimestep ETV
vector 94 TaxiNetwork.node[20] visitedPerTimestep ETV
vector 95 TaxiNetwork.node[44] visitedPerTimestep ETV
vector 96 TaxiNetwork.node[106] visitedPerTimestep ETV
vector 97 TaxiNetwork.node[136] visitedPerTimestep ETV
vector 98 TaxiNetwork.node[54] visitedPerTimestep ETV
vector 99 TaxiNetwork.node[1] visitedPerTimestep ETV
vector 100 TaxiNetwork.node[85] visitedPerTimestep ETV
vector 101 TaxiNetwork.node[39] visitedPerTimestep ETV
vector 102 TaxiNetwork.node[102] visitedPerTimestep ETV
vector 103 TaxiNetwork.node[84] visitedPerTimestep ETV
vector 104 TaxiNetwork.node[13] visitedPerTimestep ETV
vector 105 TaxiNetwork.node[122] visitedPerTimestep ETV
vector 106 TaxiNetwork.node[78] visitedPerTimestep ETV
vector 107 TaxiNetwork.node[72] visitedPerTimestep ETV
vector 108 TaxiNetwork.node[77] visitedPerTimestep ETV
vector 109 TaxiNetwork.node[4] visitedPerTimestep ETV
vector 110 TaxiNetwork.node[45] visitedPerTimestep ETV
vector 111 TaxiNetwork.node[0] visitedPerTimestep ETV
vector 112 TaxiNetwork.node[89] visitedPerTimestep ETV
vector 113 TaxiNetwork.node[33] visitedPerTimestep ETV
vector 114 TaxiNetwork.node[141] visitedPerTimestep ETV
vector 115 TaxiNetwork.node[140] visitedPerTimestep ETV
vector 116 TaxiNetwork.node[17] visitedPerTimestep ETV
vector 117 TaxiNetwork.node[56] visitedPerTimestep ETV
vector 118 TaxiNetwork.node[112] visitedPerTimestep ETV
vector 119 TaxiNetwork.node[98] visitedPerTimestep ETV
vector 120 TaxiNetwork.node[51] visitedPerTimestep ETV
vector 121 TaxiNetwork.node[55] visitedPerTimestep ETV
vector 122 TaxiNetwork.node[35] visitedPerTimestep ETV
vector 123 TaxiNetwork.node[26] visitedPerTimestep ETV
vector 124 TaxiNetwork.node[37] visitedPerTimestep ETV
vector 125 TaxiNetwork.node[34] visitedPerTimestep ETV
vector 126 TaxiNetwork.node[40] visitedPerTimestep ETV
vector 127 TaxiNetwork.node[123] visitedPerTimestep ETV
vector 128 TaxiNetwork.node[50] visitedPerTimestep ETV
vector 129 TaxiNetwork.node[135] visitedPerTimestep ETV
vector 130 TaxiNetwork.node[49] visitedPerTimestep ETV
vector 131 TaxiNetwork.node[47] visitedPerTimestep ETV
vector 132 TaxiNetwork.node[22] visitedPerTimestep ETV
vector 133 TaxiNetwork.node[81] visitedPerTimestep ETV
vector 134 TaxiNetwork.node[125] visitedPerTimestep ETV
vector 135 TaxiNetwork.node[97] visitedPerTimestep ETV
0	1	0	1
0	328	0	109
0	330	0	110
0	448	0	119
0	487	0	122
0	584	0	123
0	604	0	123
0	821	0	128
0	872	0	128
0	1034	0	128
0	1518	0	133
0	1532	0	133
0	2308	0	135
0	2326	0	135
0	2462	0	135
0	2658	0	135
0	2834	0	135
0	3000	0	135
0	3052	0	135
0	3564	0	141
0	5232	0	143
0	5704	0	143
0	6192	0	143
0	6248	0	143
0	8328	0	143
0	8392	0	143
0	8888	0	144
0	10648	0	144
0	10880	0	144
0	11480	0	144
1	2	0	2
1	148	0	73
1	170	0	82
1	458	0	119
1	587	0	123
1	615	0	123
1	629	0	125
1	648	0	125
1	672	0	125
1	696	0	125
1	878	0	128
1	888	0	128
1	982	0	128
1	997	0	128
1	1372	0	133
1	4548	0	143
1	5712	0	143
1	7624	0	143
1	9112	0	144
1	10872	0	144
1	10888	0	144
2	3	0	3
2	873	0	128
3	4	0	4
3	147	0	73
3	365	0	118
3	367	0	118
3	602	0	123
3	776	0	128
3	874	0	128
3	4004	0	143
3	4552	0	143
4	5	0	5
4	99	0	58
4	173	0	83
4	416	0	118
4	420	0	118
4	663	0	125
4	694	0	125
4	775	0	128
4	827	0	128
4	875	0	128
4	898	0	128
4	1042	0	128
4	1424	0	133
4	1870	0	133
4	2046	0	135
4	2222	0	135
4	2954	0	135
4	3856	0	142
4	4100	0	143
4	5600	0	143
4	5848	0	143
4	6020	0	143
4	6908	0	143
4	8096	0	143
4	9136	0	144
5	6	0	6
5	105	0	61
5	150	0	73
5	218	0	98
5	513	0	122
5	555	0	123
5	605	0	123
5	711	0	125
5	727	0	125
5	839	0	128
5	969	0	128
5	977	0	128
5	1324	0	133
5	1418	0	133
5	2214	0	135
5	3876	0	143
5	3976	0	143
5	4728	0	143
5	4904	0	143
5	4952	0	143
5	5044	0	143
5	5256	0	143
5	6268	0	143
5	6912	0	143
5	6928	0	143
5	7376	0	143
5	7456	0	143
5	7928	0	143
5	8000	0	143
5	9048	0	144
5	10112	0	144
5	10312	0	144
6	7	0	7
6	149	0	73
6	171	0	82
6	419	0	118
6	422	0	119
6	579	0	123
6	608	0	123
6	674	0	125
6	901	0	128
6	912	0	128
6	1370	0	133
6	1412	0	133
6	1534	0	133
6	1872	0	133
6	3652	0	141
6	4908	0	143
6	5184	0	143
6	5252	0	143
6	6260	0	143
6	6856	0	143
6	6920	0	143
6	9120	0	144
7	8	0	8
7	116	0	69
7	181	0	84
7	338	0	113
7	409	0	118
7	412	0	118
7	446	0	119
7	476	0	121
7	488	0	122
7	491	0	122
7	549	0	123
7	619	0	123
7	755	0	127
7	849	0	128
7	1088	0	128
7	1302	0	133
7	1332	0	133
7	1438	0	133
7	1528	0	133
7	1650	0	133
7	1854	0	133
7	1952	0	133
7	2004	0	135
7	2194	0	135
7	2320	0	135
7	2502	0	135
7	2560	0	135
7	2724	0	135
7	3440	0	135
7	3552	0	141
7	3952	0	143
7	4436	0	143
7	4944	0	143
7	4964	0	143
7	5224	0	143
7	5248	0	143
7	5288	0	143
7	5388	0	143
7	5472	0	143
7	5880	0	143
7	5924	0	143
7	5932	0	143
7	6256	0	143
7	6596	0	143
7	6688	0	143
7	6852	0	143
7	6936	0	143
7	6964	0	143
7	6996	0	143
7	9760	0	144
7	10560	0	144
7	11440	0	144
8	9	0	9
8	46	0	30
8	135	0	72
8	141	0	72
8	252	0	107
8	286	0	109
8	290	0	109
8	292	0	109
8	294	0	109
8	296	0	109
8	316	0	109
8	373	0	118
8	785	0	128
8	798	0	128
8	1802	0	133
8	1844	0	133
8	1878	0	133
8	1918	0	133
8	1964	0	133
8	2072	0	135
8	2090	0	135
8	2126	0	135
8	2132	0	135
8	5384	0	143
8	5392	0	143
8	5404	0	143
8	5912	0	143
8	6784	0	143
8	6992	0	143
8	11232	0	144
8	11256	0	144
8	11744	0	144
9	10	0	10
9	183	0	84
9	279	0	109
9	304	0	109
9	306	0	109
9	372	0	118
9	807	0	128
9	809	0	128
9	1798	0	133
9	1840	0	133
9	1892	0	133
9	1934	0	133
9	2150	0	135
9	3928	0	143
9	5916	0	143
10	11	0	11
10	16	0	15
10	34	0	24
10	62	0	37
10	117	0	69
10	119	0	69
10	137	0	72
10	260	0	108
10	302	0	109
10	311	0	109
10	369	0	118
10	801	0	128
10	815	0	128
10	1102	0	128
10	1826	0	133
10	1834	0	133
10	1924	0	133
10	1936	0	133
10	1966	0	133
10	2080	0	135
10	2084	0	135
10	2190	0	135
10	2408	0	135
10	3912	0	143
10	5380	0	143
10	6584	0	143
10	7288	0	143
10	11200	0	144
11	12	0	12
11	52	0	33
11	54	0	34
11	63	0	37
11	66	0	37
11	127	0	72
11	250	0	107
11	268	0	109
11	285	0	109
11	299	0	109
11	308	0	109
11	312	0	109
11	599	0	123
11	788	0	128
11	1888	0	133
11	1902	0	133
11	1946	0	133
11	2054	0	135
11	2070	0	135
11	2114	0	135
11	2128	0	135
11	2430	0	135
11	2542	0	135
11	5328	0	143
11	5356	0	143
11	5376	0	143
11	5904	0	143
11	6752	0	143
11	11224	0	144
12	13	0	13
12	125	0	72
12	136	0	72
12	139	0	72
12	248	0	107
12	257	0	108
12	259	0	108
12	277	0	109
12	547	0	123
12	794	0	128
12	799	0	128
12	1792	0	133
12	1810	0	133
12	1882	0	133
12	1922	0	133
12	1928	0	133
12	1942	0	133
12	2096	0	135
12	2174	0	135
12	5360	0	143
12	5412	0	143
12	5432	0	143
12	5888	0	143
12	8456	0	143
12	11240	0	144
13	14	0	14
13	20	0	17
13	23	0	18
13	25	0	18
13	128	0	72
13	251	0	107
13	253	0	107
13	266	0	108
13	1886	0	133
13	2136	0	135
13	2140	0	135
13	2144	0	135
13	3940	0	143
13	5340	0	143
13	7160	0	143
13	7224	0	143
13	7240	0	143
13	7256	0	143
14	15	0	15
14	24	0	18
14	35	0	24
14	122	0	71
14	124	0	72
14	129	0	72
14	282	0	109
14	315	0	109
14	796	0	128
14	800	0	128
14	2058	0	135
14	2112	0	135
14	2120	0	135
14	2170	0	135
14	2424	0	135
14	5320	0	143
14	5396	0	143
14	5896	0	143
14	6552	0	143
14	6772	0	143
14	6796	0	143
14	9920	0	144
14	11736	0	144
15	17	0	16
15	19	0	17
15	246	0	106
15	258	0	108
15	265	0	108
15	274	0	109
15	291	0	109
15	787	0	128
15	804	0	128
15	1884	0	133
15	1914	0	133
15	2082	0	135
15	2110	0	135
15	2552	0	135
15	3936	0	143
15	5300	0	143
15	5312	0	143
15	5368	0	143
15	5908	0	143
15	6576	0	143
15	6988	0	143
15	7128	0	143
15	7144	0	143
15	7232	0	143
15	8448	0	143
15	9872	0	144
16	18	0	17
16	22	0	18
16	269	0	109
16	320	0	109
16	322	0	109
16	596	0	123
16	793	0	128
16	2118	0	135
16	2426	0	135
16	6748	0	143
16	9864	0	144
16	9952	0	144
17	21	0	18
17	27	0	19
17	138	0	72
17	295	0	109
17	319	0	109
17	323	0	109
17	493	0	122
17	541	0	123
17	597	0	123
17	803	0	128
17	1786	0	133
17	1912	0	133
17	1916	0	133
17	1920	0	133
17	2432	0	135
17	5316	0	143
17	5372	0	143
17	5900	0	143
17	6984	0	143
17	7248	0	143
17	7280	0	143
17	8440	0	143
17	9928	0	144
18	26	0	19
18	69	0	37
18	385	0	118
18	494	0	122
18	595	0	123
18	791	0	128
18	1110	0	128
18	1314	0	133
18	3944	0	143
18	4568	0	143
18	5352	0	143
18	5504	0	143
18	7112	0	143
18	8432	0	143
18	8488	0	143
19	28	0	20
19	144	0	72
19	263	0	108
19	376	0	118
19	598	0	123
19	677	0	125
19	784	0	128
19	1796	0	133
19	1842	0	133
19	1876	0	133
19	1894	0	133
19	1926	0	133
19	1930	0	133
19	1940	0	133
19	1948	0	133
19	2074	0	135
19	2156	0	135
19	2162	0	135
19	5336	0	143
19	5408	0	143
19	5428	0	143
19	5492	0	143
19	6544	0	143
19	7136	0	143
19	7208	0	143
20	29	0	21
20	44	0	30
20	143	0	72
20	145	0	72
20	182	0	84
20	242	0	106
20	297	0	109
20	303	0	109
20	806	0	128
20	1814	0	133
20	1818	0	133
20	2104	0	135
20	2148	0	135
20	2176	0	135
20	2556	0	135
20	3932	0	143
20	4588	0	143
20	5296	0	143
20	6560	0	143
20	6568	0	143
20	11216	0	144
21	30	0	22
21	32	0	23
21	65	0	37
21	278	0	109
21	300	0	109
21	310	0	109
21	374	0	118
21	377	0	118
21	492	0	122
21	680	0	125
21	797	0	128
21	802	0	128
21	814	0	128
21	1096	0	128
21	1784	0	133
21	1800	0	133
21	1808	0	133
21	1890	0	133
21	1956	0	133
21	2124	0	135
21	2540	0	135
21	2544	0	135
21	2558	0	135
21	5920	0	143
21	6580	0	143
21	6756	0	143
21	7200	0	143
21	10568	0	144
21	11728	0	144
21	11752	0	144
22	31	0	23
22	38	0	26
22	140	0	72
22	184	0	84
22	283	0	109
22	309	0	109
22	378	0	118
22	631	0	125
22	811	0	128
22	1806	0	133
22	1950	0	133
22	2002	0	135
22	2050	0	135
22	2412	0	135
22	2434	0	135
22	2548	0	135
22	5476	0	143
22	6548	0	143
22	6968	0	143
22	7192	0	143
22	10576	0	144
22	11192	0	144
23	33	0	24
23	270	0	109
23	284	0	109
23	318	0	109
23	543	0	123
23	545	0	123
23	1820	0	133
23	1938	0	133
23	1944	0	133
23	1958	0	133
23	2094	0	135
23	2134	0	135
23	2178	0	135
23	2546	0	135
23	2550	0	135
23	5304	0	143
23	5348	0	143
23	5420	0	143
23	5484	0	143
23	5500	0	143
23	6760	0	143
23	6780	0	143
23	6980	0	143
23	8472	0	143
23	9936	0	144
24	36	0	25
24	55	0	34
24	57	0	35
24	126	0	72
24	130	0	72
24	134	0	72
24	244	0	106
24	272	0	109
24	1790	0	133
24	1898	0	133
24	2068	0	135
24	2098	0	135
24	2142	0	135
24	2166	0	135
24	5332	0	143
24	5416	0	143
24	5436	0	143
24	6976	0	143
24	9896	0	144
25	37	0	26
25	47	0	30
25	51	0	33
25	133	0	72
25	261	0	108
25	273	0	109
25	281	0	109
25	305	0	109
25	679	0	125
25	779	0	128
25	1804	0	133
25	2122	0	135
25	2154	0	135
25	2158	0	135
25	2184	0	135
25	2416	0	135
25	5308	0	143
26	39	0	27
26	41	0	28
26	370	0	118
26	851	0	128
26	1836	0	133
26	1968	0	133
26	1998	0	135
26	3900	0	143
26	3920	0	143
27	40	0	28
27	1972	0	134
27	1984	0	135
27	1990	0	135
28	42	0	29
28	60	0	36
28	142	0	72
28	313	0	109
28	371	0	118
28	375	0	118
28	777	0	128
28	782	0	128
28	850	0	128
28	852	0	128
28	1090	0	128
28	1100	0	128
28	1524	0	133
28	1830	0	133
28	2406	0	135
28	2656	0	135
28	3916	0	143
28	3924	0	143
28	4556	0	143
28	5292	0	143
28	7176	0	143
28	8336	0	143
29	43	0	30
29	45	0	30
29	1092	0	128
29	1098	0	128
29	1822	0	133
29	1904	0	133
29	1932	0	133
29	1962	0	133
29	2052	0	135
29	2078	0	135
29	2152	0	135
29	2420	0	135
29	4232	0	143
29	4572	0	143
29	5480	0	143
29	6800	0	143
29	7272	0	143
29	8480	0	143
29	11208	0	144
29	11272	0	144
30	48	0	31
30	544	0	123
30	546	0	123
30	1896	0	133
30	2102	0	135
30	5400	0	143
30	5424	0	143
30	5496	0	143
30	6556	0	143
30	6776	0	143
30	6788	0	143
30	9880	0	144
30	9912	0	144
30	11248	0	144
31	49	0	32
31	808	0	128
32	50	0	33
32	262	0	108
32	780	0	128
32	2160	0	135
32	2186	0	135
33	53	0	34
33	58	0	35
33	67	0	37
33	132	0	72
33	243	0	106
33	245	0	106
33	298	0	109
33	789	0	128
33	2066	0	135
33	2146	0	135
33	2168	0	135
33	5488	0	143
33	7152	0	143
34	56	0	35
34	131	0	72
34	256	0	108
34	2062	0	135
34	2108	0	135
35	59	0	36
35	64	0	37
35	68	0	37
35	288	0	109
35	293	0	109
35	317	0	109
35	790	0	128
35	812	0	128
35	1104	0	128
35	1788	0	133
35	1824	0	133
35	1880	0	133
35	1910	0	133
35	2116	0	135
35	2130	0	135
35	2182	0	135
35	4236	0	143
35	4564	0	143
35	5440	0	143
35	6588	0	143
35	6972	0	143
35	7168	0	143
36	61	0	37
36	118	0	69
36	185	0	84
36	241	0	106
36	249	0	107
36	497	0	122
36	810	0	128
36	813	0	128
36	1838	0	133
36	2422	0	135
36	2818	0	135
36	3904	0	143
36	4580	0	143
36	5884	0	143
36	7296	0	143
37	70	0	38
37	334	0	112
37	525	0	122
37	589	0	123
37	644	0	125
37	687	0	125
37	734	0	125
37	929	0	128
37	1212	0	133
37	1268	0	133
37	1288	0	133
37	1636	0	133
37	2568	0	135
37	2582	0	135
37	2636	0	135
37	2942	0	135
37	3124	0	135
37	3312	0	135
37	3532	0	139
37	3780	0	141
37	4136	0	143
37	4720	0	143
37	4752	0	143
37	4936	0	143
37	5144	0	143
37	8024	0	143
37	8352	0	143
37	8640	0	143
37	11544	0	144
37	11600	0	144
38	71	0	39
38	384	0	118
38	577	0	123
38	590	0	123
38	700	0	125
38	719	0	125
38	845	0	128
38	1388	0	133
38	1580	0	133
38	1628	0	133
38	1728	0	133
38	2196	0	135
38	2520	0	135
38	2704	0	135
38	2976	0	135
38	2982	0	135
38	3028	0	135
38	3288	0	135
38	3340	0	135
38	3448	0	135
38	3456	0	135
38	3700	0	141
38	3956	0	143
38	4248	0	143
38	4280	0	143
38	4440	0	143
38	4684	0	143
38	4928	0	143
38	5120	0	143
38	5460	0	143
38	5624	0	143
38	5636	0	143
38	6012	0	143
38	6052	0	143
38	6716	0	143
38	6828	0	143
38	7880	0	143
38	7944	0	143
38	8704	0	143
38	9384	0	144
38	9552	0	144
38	9648	0	144
38	9728	0	144
38	10048	0	144
38	10680	0	144
38	11704	0	144
39	72	0	40
39	179	0	84
39	347	0	114
39	465	0	121
39	582	0	123
39	722	0	125
39	941	0	128
39	1010	0	128
39	1140	0	128
39	1282	0	133
39	1306	0	133
39	1478	0	133
39	1568	0	133
39	2024	0	135
39	2274	0	135
39	2522	0	135
39	2700	0	135
39	2776	0	135
39	3176	0	135
39	3476	0	135
39	3504	0	136
39	4036	0	143
39	4508	0	143
39	4776	0	143
39	5752	0	143
39	5832	0	143
39	10520	0	144
39	11592	0	144
40	73	0	41
40	161	0	80
40	205	0	92
40	344	0	113
40	404	0	118
40	436	0	119
40	515	0	122
40	533	0	122
40	564	0	123
40	574	0	123
40	626	0	125
40	634	0	125
40	732	0	125
40	841	0	128
40	843	0	128
40	870	0	128
40	1028	0	128
40	1248	0	133
40	1486	0	133
40	1576	0	133
40	1680	0	133
40	2258	0	135
40	2440	0	135
40	2790	0	135
40	2804	0	135
40	3500	0	135
40	3732	0	141
40	3820	0	142
40	4172	0	143
40	4180	0	143
40	4316	0	143
40	4328	0	143
40	4632	0	143
40	4708	0	143
40	4768	0	143
40	4840	0	143
40	5664	0	143
40	5784	0	143
40	7432	0	143
40	8136	0	143
40	8784	0	144
40	8952	0	144
40	9032	0	144
40	10280	0	144
40	10416	0	144
40	10832	0	144
41	74	0	42
41	201	0	91
41	236	0	104
41	332	0	111
41	356	0	117
41	439	0	119
41	523	0	122
41	639	0	125
41	710	0	125
41	712	0	125
41	717	0	125
41	753	0	127
41	846	0	128
41	953	0	128
41	976	0	128
41	1002	0	128
41	1020	0	128
41	1082	0	128
41	1244	0	133
41	1258	0	133
41	1346	0	133
41	1380	0	133
41	1546	0	133
41	1560	0	133
41	1704	0	133
41	1746	0	133
41	1864	0	133
41	2014	0	135
41	2260	0	135
41	2288	0	135
41	2444	0	135
41	2586	0	135
41	2676	0	135
41	2758	0	135
41	2898	0	135
41	3828	0	142
41	4120	0	143
41	4468	0	143
41	4644	0	143
41	5072	0	143
41	5580	0	143
41	5956	0	143
41	6388	0	143
41	6412	0	143
41	6484	0	143
41	6712	0	143
41	7384	0	143
41	8008	0	143
41	8120	0	143
41	9088	0	144
41	9696	0	144
41	10024	0	144
41	10472	0	144
41	10536	0	144
41	11680	0	144
42	75	0	43
42	77	0	44
42	86	0	51
42	88	0	51
42	198	0	90
42	517	0	122
42	740	0	125
42	764	0	128
42	1058	0	128
42	1198	0	133
42	1622	0	133
42	1766	0	133
42	2244	0	135
42	2788	0	135
42	2862	0	135
42	3168	0	135
42	3328	0	135
42	3404	0	135
42	4340	0	143
42	4816	0	143
42	4848	0	143
42	5548	0	143
42	5680	0	143
42	6472	0	143
42	6496	0	143
42	7352	0	143
42	8264	0	143
42	9232	0	144
42	10232	0	144
42	10800	0	144
43	76	0	44
43	87	0	51
43	742	0	125
43	1066	0	128
43	2476	0	135
43	2770	0	135
43	3156	0	135
43	4192	0	143
43	4200	0	143
43	5688	0	143
43	6136	0	143
43	6464	0	143
43	7416	0	143
44	78	0	45
44	2640	0	135
44	2904	0	135
44	3324	0	135
44	4208	0	143
44	8720	0	143
44	8736	0	144
44	10240	0	144
44	10256	0	144
45	79	0	46
45	84	0	50
45	203	0	91
45	228	0	101
45	346	0	114
45	381	0	118
45	622	0	123
45	858	0	128
45	860	0	128
45	866	0	128
45	895	0	128
45	957	0	128
45	1068	0	128
45	1150	0	128
45	1222	0	133
45	1286	0	133
45	1428	0	133
45	1454	0	133
45	1740	0	133
45	1744	0	133
45	2008	0	135
45	2026	0	135
45	2030	0	135
45	2246	0	135
45	2272	0	135
45	2292	0	135
45	2314	0	135
45	2472	0	135
45	2528	0	135
45	2642	0	135
45	2666	0	135
45	2738	0	135
45	2842	0	135
45	3172	0	135
45	3316	0	135
45	3464	0	135
45	3508	0	136
45	3524	0	139
45	4128	0	143
45	4324	0	143
45	4516	0	143
45	4704	0	143
45	5676	0	143
45	6352	0	143
45	7008	0	143
45	7424	0	143
45	8632	0	143
45	9600	0	144
45	9672	0	144
45	10344	0	144
45	10368	0	144
45	10968	0	144
46	80	0	47
46	97	0	57
46	159	0	79
46	224	0	99
46	327	0	109
46	341	0	113
46	362	0	117
46	454	0	119
46	572	0	123
46	609	0	123
46	660	0	125
46	759	0	128
46	761	0	128
46	766	0	128
46	847	0	128
46	926	0	128
46	1120	0	128
46	1458	0	133
46	1530	0	133
46	1778	0	133
46	2218	0	135
46	2592	0	135
46	2660	0	135
46	2734	0	135
46	3056	0	135
46	3108	0	135
46	3240	0	135
46	3308	0	135
46	3764	0	141
46	4224	0	143
46	4772	0	143
46	5228	0	143
46	5264	0	143
46	5608	0	143
46	6664	0	143
46	6816	0	143
46	7440	0	143
46	7640	0	143
46	7984	0	143
46	8152	0	143
46	8896	0	144
46	9056	0	144
46	9328	0	144
46	9376	0	144
46	9824	0	144
46	10288	0	144
46	11032	0	144
46	11288	0	144
47	81	0	48
47	111	0	66
47	157	0	78
47	202	0	91
47	220	0	98
47	394	0	118
47	440	0	119
47	469	0	121
47	482	0	122
47	504	0	122
47	566	0	123
47	573	0	123
47	638	0	125
47	654	0	125
47	765	0	128
47	818	0	128
47	1014	0	128
47	1046	0	128
47	1216	0	133
47	1228	0	133
47	1250	0	133
47	1264	0	133
47	1310	0	133
47	1668	0	133
47	1698	0	133
47	1754	0	133
47	2718	0	135
47	2814	0	135
47	2868	0	135
47	2912	0	135
47	2964	0	135
47	3004	0	135
47	3020	0	135
47	3060	0	135
47	3192	0	135
47	3220	0	135
47	3784	0	141
47	4500	0	143
47	4604	0	143
47	4656	0	143
47	4668	0	143
47	4784	0	143
47	4808	0	143
47	5056	0	143
47	5568	0	143
47	5576	0	143
47	5808	0	143
47	5840	0	143
47	5860	0	143
47	5960	0	143
47	6100	0	143
47	6372	0	143
47	6868	0	143
47	7896	0	143
47	8072	0	143
47	8712	0	143
47	9256	0	144
47	9296	0	144
47	9336	0	144
47	9584	0	144
47	9608	0	144
47	9632	0	144
47	11520	0	144
48	82	0	49
48	94	0	55
48	237	0	104
48	449	0	119
48	484	0	122
48	530	0	122
48	583	0	123
48	691	0	125
48	857	0	128
48	891	0	128
48	933	0	128
48	939	0	128
48	1114	0	128
48	1128	0	128
48	1366	0	133
48	1520	0	133
48	1630	0	133
48	2204	0	135
48	2276	0	135
48	2460	0	135
48	2536	0	135
48	2584	0	135
48	2882	0	135
48	3104	0	135
48	3188	0	135
48	3256	0	135
48	3348	0	135
48	3496	0	135
48	3644	0	141
48	4524	0	143
48	4648	0	143
48	4948	0	143
48	5100	0	143
48	5672	0	143
48	6004	0	143
48	6380	0	143
48	6672	0	143
48	8248	0	143
48	8416	0	143
48	8600	0	143
48	8688	0	143
48	9072	0	144
48	10488	0	144
48	11360	0	144
48	11504	0	144
49	83	0	50
49	169	0	82
49	354	0	117
49	360	0	117
49	388	0	118
49	391	0	118
49	398	0	118
49	550	0	123
49	728	0	125
49	844	0	128
49	871	0	128
49	897	0	128
49	920	0	128
49	995	0	128
49	1036	0	128
49	1266	0	133
49	1350	0	133
49	1406	0	133
49	1646	0	133
49	1732	0	133
49	2828	0	135
49	3076	0	135
49	3268	0	135
49	3668	0	141
49	3772	0	141
49	3816	0	141
49	3860	0	142
49	4404	0	143
49	4796	0	143
49	5240	0	143
49	5528	0	143
49	5716	0	143
49	5744	0	143
49	6032	0	143
49	6420	0	143
49	6620	0	143
49	6628	0	143
49	6832	0	143
49	7024	0	143
49	7328	0	143
49	8968	0	144
49	9144	0	144
49	9312	0	144
49	9568	0	144
49	11072	0	144
50	85	0	51
50	89	0	51
50	189	0	85
50	197	0	90
50	200	0	91
50	518	0	122
50	833	0	128
50	959	0	128
50	1204	0	133
50	1542	0	133
50	1684	0	133
50	1696	0	133
50	2234	0	135
50	2240	0	135
50	2672	0	135
50	2744	0	135
50	2768	0	135
50	3152	0	135
50	3400	0	135
50	4256	0	143
50	4360	0	143
50	4496	0	143
50	4824	0	143
50	5020	0	143
50	6448	0	143
50	6872	0	143
50	7536	0	143
50	8200	0	143
50	10384	0	144
51	90	0	52
51	162	0	80
51	165	0	81
51	226	0	100
51	239	0	105
51	342	0	113
51	387	0	118
51	427	0	119
51	641	0	125
51	670	0	125
51	714	0	125
51	750	0	126
51	770	0	128
51	1322	0	133
51	1376	0	133
51	1516	0	133
51	1544	0	133
51	1660	0	133
51	2256	0	135
51	2284	0	135
51	2508	0	135
51	2578	0	135
51	2664	0	135
51	2822	0	135
51	2896	0	135
51	3128	0	135
51	3776	0	141
51	4040	0	143
51	4148	0	143
51	4380	0	143
51	4940	0	143
51	5008	0	143
51	5080	0	143
51	5660	0	143
51	6200	0	143
51	6304	0	143
51	6384	0	143
51	6408	0	143
51	6528	0	143
51	7512	0	143
51	7936	0	143
51	8296	0	143
51	8512	0	143
51	8808	0	144
51	9440	0	144
52	91	0	53
52	154	0	76
52	503	0	122
52	739	0	125
52	767	0	128
52	945	0	128
52	947	0	128
52	964	0	128
52	1024	0	128
52	1138	0	128
52	1262	0	133
52	1442	0	133
52	1504	0	133
52	1540	0	133
52	1578	0	133
52	1618	0	133
52	1624	0	133
52	1738	0	133
52	2016	0	135
52	2468	0	135
52	2632	0	135
52	2644	0	135
52	2684	0	135
52	2728	0	135
52	2754	0	135
52	2800	0	135
52	2844	0	135
52	3100	0	135
52	4252	0	143
52	4664	0	143
52	4852	0	143
52	5052	0	143
52	5088	0	143
52	5148	0	143
52	5948	0	143
52	5976	0	143
52	6104	0	143
52	6296	0	143
52	6728	0	143
52	7496	0	143
52	8504	0	143
52	8568	0	143
52	9352	0	144
52	9424	0	144
52	9640	0	144
52	10040	0	144
52	10664	0	144
52	11064	0	144
52	11536	0	144
52	11632	0	144
53	92	0	54
53	353	0	117
53	433	0	119
53	464	0	121
53	536	0	123
53	571	0	123
53	621	0	123
53	834	0	128
53	903	0	128
53	944	0	128
53	1012	0	128
53	1018	0	128
53	1078	0	128
53	1290	0	133
53	1432	0	133
53	1450	0	133
53	1460	0	133
53	1466	0	133
53	1494	0	133
53	1670	0	133
53	1776	0	133
53	2488	0	135
53	2494	0	135
53	2534	0	135
53	2698	0	135
53	2826	0	135
53	2864	0	135
53	2902	0	135
53	3120	0	135
53	3244	0	135
53	3388	0	135
53	3672	0	141
53	4336	0	143
53	4636	0	143
53	4780	0	143
53	4860	0	143
53	5036	0	143
53	5800	0	143
53	6400	0	143
53	6436	0	143
53	6488	0	143
53	9704	0	144
53	9800	0	144
53	9816	0	144
53	10208	0	144
53	10688	0	144
53	10984	0	144
53	11056	0	144
54	93	0	55
54	430	0	119
54	645	0	125
54	665	0	125
54	667	0	125
54	771	0	128
54	837	0	128
54	928	0	128
54	1126	0	128
54	1426	0	133
54	2006	0	135
54	2028	0	135
54	2250	0	135
54	2254	0	135
54	2516	0	135
54	2574	0	135
54	2716	0	135
54	2888	0	135
54	3212	0	135
54	3356	0	135
54	3580	0	141
54	3620	0	141
54	3696	0	141
54	3752	0	141
54	3964	0	143
54	3972	0	143
54	4016	0	143
54	4080	0	143
54	4152	0	143
54	5112	0	143
54	5268	0	143
54	6244	0	143
54	8656	0	143
54	8880	0	144
54	10672	0	144
54	11144	0	144
54	11320	0	144
54	11528	0	144
54	11584	0	144
55	95	0	56
55	213	0	96
55	455	0	119
55	475	0	121
55	490	0	122
55	611	0	123
55	936	0	128
55	1116	0	128
55	1330	0	133
55	1648	0	133
55	2212	0	135
55	2300	0	135
55	2950	0	135
55	3296	0	135
55	4008	0	143
55	4072	0	143
55	5216	0	143
55	6024	0	143
55	6840	0	143
55	6860	0	143
55	7088	0	143
55	8224	0	143
55	8312	0	143
55	8904	0	144
55	9456	0	144
55	9496	0	144
55	10848	0	144
55	11368	0	144
56	96	0	57
56	452	0	119
56	556	0	123
56	612	0	123
56	708	0	125
56	899	0	128
56	931	0	128
56	972	0	128
56	974	0	128
56	1118	0	128
56	1656	0	133
56	1868	0	133
56	2994	0	135
56	3648	0	141
56	3872	0	143
56	3996	0	143
56	10136	0	144
56	11312	0	144
56	11392	0	144
57	98	0	58
57	104	0	61
57	217	0	98
57	627	0	125
57	664	0	125
57	707	0	125
57	760	0	128
57	915	0	128
57	917	0	128
57	919	0	128
57	973	0	128
57	1040	0	128
57	1556	0	133
57	2368	0	135
57	2594	0	135
57	2714	0	135
57	2830	0	135
57	3980	0	143
57	10120	0	144
57	10144	0	144
58	100	0	59
58	215	0	97
58	451	0	119
58	460	0	119
58	980	0	128
58	1594	0	133
58	2338	0	135
58	2396	0	135
58	2608	0	135
58	3988	0	143
58	4732	0	143
58	4896	0	143
58	6884	0	143
58	11416	0	144
59	101	0	60
59	103	0	61
59	916	0	128
59	1156	0	128
59	1172	0	131
59	1192	0	133
59	2356	0	135
59	2362	0	135
59	2366	0	135
59	2374	0	135
59	2380	0	135
59	7680	0	143
59	7800	0	143
59	7856	0	143
60	102	0	61
60	1164	0	130
60	1178	0	131
60	1186	0	132
60	1190	0	133
60	2378	0	135
60	2392	0	135
60	2600	0	135
60	7696	0	143
60	7784	0	143
61	106	0	62
61	390	0	118
61	450	0	119
61	453	0	119
61	554	0	123
61	557	0	123
61	607	0	123
61	610	0	123
61	628	0	125
61	671	0	125
61	673	0	125
61	705	0	125
61	886	0	128
61	914	0	128
61	918	0	128
61	934	0	128
61	975	0	128
61	981	0	128
61	1298	0	133
61	1410	0	133
61	1420	0	133
61	2336	0	135
61	2938	0	135
61	2998	0	135
61	3688	0	141
61	3760	0	141
61	3992	0	143
61	4096	0	143
61	4536	0	143
61	6176	0	143
61	6844	0	143
61	6880	0	143
61	6892	0	143
61	7072	0	143
61	7368	0	143
61	8088	0	143
61	9152	0	144
61	9480	0	144
61	10304	0	144
61	10744	0	144
61	11024	0	144
61	11384	0	144
61	11400	0	144
62	107	0	63
62	459	0	119
62	854	0	128
62	879	0	128
62	979	0	128
62	1414	0	133
62	1474	0	133
62	1592	0	133
62	1596	0	133
62	1654	0	133
62	1712	0	133
62	2400	0	135
62	2836	0	135
62	2992	0	135
62	3380	0	135
62	3984	0	143
62	4800	0	143
62	5588	0	143
62	5936	0	143
62	6168	0	143
62	6916	0	143
62	6932	0	143
62	7032	0	143
62	7472	0	143
62	9504	0	144
62	10000	0	144
63	108	0	64
63	168	0	82
63	177	0	84
63	325	0	109
63	379	0	118
63	408	0	118
63	472	0	121
63	528	0	122
63	576	0	123
63	586	0	123
63	591	0	123
63	656	0	125
63	666	0	125
63	681	0	125
63	853	0	128
63	893	0	128
63	911	0	128
63	996	0	128
63	1304	0	133
63	1422	0	133
63	1510	0	133
63	1600	0	133
63	2044	0	135
63	2048	0	135
63	2086	0	135
63	2206	0	135
63	2266	0	135
63	2538	0	135
63	2748	0	135
63	2820	0	135
63	3080	0	135
63	3452	0	135
63	4920	0	143
63	5096	0	143
63	5208	0	143
63	5740	0	143
63	6252	0	143
63	6720	0	143
63	7096	0	143
63	7968	0	143
63	8344	0	143
63	8584	0	143
63	10008	0	144
63	10320	0	144
63	10856	0	144
63	11296	0	144
63	11496	0	144
63	11696	0	144
63	11760	0	144
64	109	0	65
64	175	0	84
64	207	0	92
64	219	0	98
64	418	0	118
64	426	0	119
64	507	0	122
64	620	0	123
64	690	0	125
64	935	0	128
64	983	0	128
64	2208	0	135
64	2282	0	135
64	2454	0	135
64	2886	0	135
64	3184	0	135
64	3300	0	135
64	3604	0	141
64	3844	0	142
64	3864	0	142
64	4388	0	143
64	5648	0	143
64	5748	0	143
64	5824	0	143
64	6000	0	143
64	6084	0	143
64	6272	0	143
64	6336	0	143
64	7608	0	143
64	8016	0	143
64	8536	0	143
64	10608	0	144
64	10736	0	144
64	11688	0	144
65	110	0	66
65	357	0	117
65	383	0	118
65	467	0	121
65	531	0	122
65	553	0	123
65	561	0	123
65	635	0	125
65	682	0	125
65	724	0	125
65	726	0	125
65	1086	0	128
65	1750	0	133
65	2202	0	135
65	2216	0	135
65	2482	0	135
65	2496	0	135
65	2504	0	135
65	2562	0	135
65	2620	0	135
65	2752	0	135
65	2894	0	135
65	2948	0	135
65	3092	0	135
65	3528	0	139
65	3756	0	141
65	4156	0	143
65	4244	0	143
65	4288	0	143
65	4640	0	143
65	4672	0	143
65	4740	0	143
65	4804	0	143
65	5452	0	143
65	5656	0	143
65	5720	0	143
65	5760	0	143
65	5876	0	143
65	6504	0	143
65	6668	0	143
65	6864	0	143
65	6900	0	143
65	8232	0	143
65	8368	0	143
65	8560	0	143
65	9248	0	144
65	9464	0	144
65	9976	0	144
65	10104	0	144
65	10480	0	144
65	10592	0	144
66	112	0	67
66	115	0	69
66	176	0	84
66	361	0	117
66	435	0	119
66	509	0	122
66	563	0	123
66	568	0	123
66	824	0	128
66	921	0	128
66	1270	0	133
66	1572	0	133
66	2226	0	135
66	2784	0	135
66	2824	0	135
66	2990	0	135
66	3048	0	135
66	3616	0	141
66	3740	0	141
66	3808	0	141
66	3960	0	143
66	4104	0	143
66	4308	0	143
66	4368	0	143
66	4764	0	143
66	4956	0	143
66	6164	0	143
66	6948	0	143
66	9616	0	144
66	9968	0	144
66	10336	0	144
66	11464	0	144
67	113	0	68
67	352	0	117
67	410	0	118
67	558	0	123
67	581	0	123
67	762	0	128
67	774	0	128
67	840	0	128
67	842	0	128
67	855	0	128
67	862	0	128
67	937	0	128
67	956	0	128
67	978	0	128
67	992	0	128
67	1008	0	128
67	1074	0	128
67	1210	0	133
67	1236	0	133
67	1722	0	133
67	2302	0	135
67	2524	0	135
67	2576	0	135
67	2812	0	135
67	2956	0	135
67	3344	0	135
67	3692	0	141
67	4132	0	143
67	4332	0	143
67	4540	0	143
67	5996	0	143
67	6060	0	143
67	7480	0	143
67	7992	0	143
67	8376	0	143
67	10552	0	144
67	11096	0	144
67	11456	0	144
68	114	0	69
68	163	0	80
68	166	0	81
68	222	0	98
68	402	0	118
68	569	0	123
68	723	0	125
68	942	0	128
68	994	0	128
68	1384	0	133
68	1392	0	133
68	1470	0	133
68	1612	0	133
68	2032	0	135
68	2038	0	135
68	2448	0	135
68	2634	0	135
68	2692	0	135
68	2766	0	135
68	3224	0	135
68	3248	0	135
68	3492	0	135
68	3592	0	141
68	3748	0	141
68	3792	0	141
68	4356	0	143
68	4428	0	143
68	4676	0	143
68	5084	0	143
68	5160	0	143
68	5536	0	143
68	5828	0	143
68	6144	0	143
68	6220	0	143
68	6740	0	143
68	8256	0	143
68	8576	0	143
68	8696	0	143
68	8824	0	144
68	9264	0	144
68	9304	0	144
68	9792	0	144
68	10352	0	144
68	10760	0	144
68	11344	0	144
68	11712	0	144
69	120	0	70
69	301	0	109
69	368	0	118
69	601	0	123
69	781	0	128
69	1828	0	133
69	2188	0	135
70	121	0	71
70	314	0	109
70	548	0	123
70	600	0	123
70	676	0	125
70	783	0	128
70	1848	0	133
70	1908	0	133
70	2000	0	135
70	2056	0	135
70	2088	0	135
70	2192	0	135
70	2414	0	135
70	3888	0	143
70	3896	0	143
70	3908	0	143
70	4560	0	143
70	4576	0	143
70	4584	0	143
70	4592	0	143
70	6540	0	143
70	6572	0	143
70	6592	0	143
70	7184	0	143
70	9768	0	144
70	11264	0	144
71	123	0	72
71	321	0	109
71	542	0	123
71	792	0	128
71	1108	0	128
71	1316	0	133
71	2138	0	135
71	2180	0	135
71	2428	0	135
71	5324	0	143
71	5344	0	143
71	7120	0	143
71	8464	0	143
71	9944	0	144
72	146	0	73
72	186	0	84
72	280	0	109
72	287	0	109
72	289	0	109
72	307	0	109
72	366	0	118
72	423	0	119
72	540	0	123
72	603	0	123
72	630	0	125
72	650	0	125
72	675	0	125
72	778	0	128
72	816	0	128
72	822	0	128
72	1094	0	128
72	1832	0	133
72	1846	0	133
72	1850	0	133
72	1874	0	133
72	2076	0	135
72	2210	0	135
72	2410	0	135
72	10864	0	144
73	151	0	74
73	196	0	90
73	233	0	103
73	480	0	122
73	751	0	126
73	763	0	128
73	825	0	128
73	946	0	128
73	949	0	128
73	961	0	128
73	1296	0	133
73	1564	0	133
73	1574	0	133
73	1760	0	133
73	1764	0	133
73	2278	0	135
73	2450	0	135
73	2506	0	135
73	2622	0	135
73	2710	0	135
73	2760	0	135
73	2920	0	135
73	2980	0	135
73	3148	0	135
73	3676	0	141
73	3724	0	141
73	4064	0	143
73	4164	0	143
73	4284	0	143
73	4452	0	143
73	5004	0	143
73	5168	0	143
73	5532	0	143
73	5992	0	143
73	6080	0	143
73	6092	0	143
73	6308	0	143
73	6316	0	143
73	6604	0	143
73	6616	0	143
73	7344	0	143
73	7360	0	143
73	7600	0	143
73	8928	0	144
73	9168	0	144
73	9624	0	144
73	10088	0	144
73	10176	0	144
73	10200	0	144
73	10904	0	144
73	11568	0	144
74	152	0	75
74	235	0	104
74	551	0	123
74	658	0	125
74	720	0	125
74	863	0	128
74	924	0	128
74	938	0	128
74	1240	0	133
74	1708	0	133
74	1858	0	133
74	2200	0	135
74	2480	0	135
74	2572	0	135
74	2694	0	135
74	2708	0	135
74	3008	0	135
74	3024	0	135
74	3096	0	135
74	3204	0	135
74	3264	0	135
74	3416	0	135
74	3848	0	142
74	4108	0	143
74	4220	0	143
74	5032	0	143
74	5104	0	143
74	5204	0	143
74	5284	0	143
74	5508	0	143
74	5640	0	143
74	5868	0	143
74	6064	0	143
74	6156	0	143
74	6204	0	143
74	6696	0	143
74	7912	0	143
74	8184	0	143
74	8520	0	143
74	10072	0	144
74	10328	0	144
74	10512	0	144
74	11336	0	144
75	153	0	76
75	405	0	118
75	414	0	118
75	457	0	119
75	512	0	122
75	578	0	123
75	580	0	123
75	606	0	123
75	613	0	123
75	998	0	128
75	1256	0	133
75	1536	0	133
75	1590	0	133
75	1666	0	133
75	2042	0	135
75	2614	0	135
75	2940	0	135
75	2946	0	135
75	3292	0	135
75	3548	0	141
75	3556	0	141
75	3568	0	141
75	4012	0	143
75	4168	0	143
75	4472	0	143
75	4532	0	143
75	4600	0	143
75	5000	0	143
75	5220	0	143
75	5652	0	143
75	5736	0	143
75	6328	0	143
75	6612	0	143
75	6632	0	143
75	6808	0	143
75	6824	0	143
75	8672	0	143
75	8912	0	144
75	9104	0	144
75	10408	0	144
75	10640	0	144
75	10896	0	144
75	11472	0	144
76	155	0	77
76	188	0	85
76	339	0	113
76	575	0	123
76	642	0	125
76	661	0	125
76	698	0	125
76	709	0	125
76	735	0	125
76	830	0	128
76	930	0	128
76	987	0	128
76	989	0	128
76	1496	0	133
76	1658	0	133
76	1672	0	133
76	1702	0	133
76	1724	0	133
76	1730	0	133
76	1866	0	133
76	2298	0	135
76	2324	0	135
76	2650	0	135
76	3536	0	140
76	3832	0	142
76	3868	0	143
76	4076	0	143
76	4488	0	143
76	4544	0	143
76	4872	0	143
76	5040	0	143
76	5772	0	143
76	5796	0	143
76	6016	0	143
76	6196	0	143
76	6524	0	143
76	6624	0	143
76	6656	0	143
76	6724	0	143
76	6904	0	143
76	6944	0	143
76	7064	0	143
76	7664	0	143
76	8384	0	143
76	8624	0	143
76	9344	0	144
76	9536	0	144
76	9680	0	144
76	10152	0	144
76	10296	0	144
76	11008	0	144
76	11432	0	144
77	156	0	78
77	400	0	118
77	429	0	119
77	716	0	125
77	769	0	128
77	907	0	128
77	1006	0	128
77	1122	0	128
77	1142	0	128
77	1340	0	133
77	1514	0	133
77	1616	0	133
77	1632	0	133
77	1642	0	133
77	1756	0	133
77	2022	0	135
77	2312	0	135
77	2526	0	135
77	2680	0	135
77	2840	0	135
77	3280	0	135
77	3332	0	135
77	3364	0	135
77	3412	0	135
77	4140	0	143
77	5016	0	143
77	5512	0	143
77	5696	0	143
77	6160	0	143
77	6636	0	143
77	6644	0	143
77	6708	0	143
77	7400	0	143
77	8864	0	144
77	8936	0	144
77	9368	0	144
77	10160	0	144
77	10456	0	144
78	158	0	79
78	209	0	93
78	336	0	113
78	437	0	119
78	514	0	122
78	562	0	123
78	669	0	125
78	889	0	128
78	968	0	128
78	991	0	128
78	999	0	128
78	1072	0	128
78	1144	0	128
78	1374	0	133
78	1448	0	133
78	1464	0	133
78	1476	0	133
78	1706	0	133
78	1716	0	133
78	2484	0	135
78	2588	0	135
78	2662	0	135
78	2674	0	135
78	2722	0	135
78	2794	0	135
78	2936	0	135
78	3468	0	135
78	3628	0	141
78	3712	0	141
78	3836	0	142
78	4028	0	143
78	4836	0	143
78	5940	0	143
78	6088	0	143
78	6232	0	143
78	6608	0	143
78	8848	0	144
78	8960	0	144
78	9688	0	144
78	11040	0	144
78	11168	0	144
79	160	0	80
79	180	0	84
79	206	0	92
79	380	0	118
79	401	0	118
79	511	0	122
79	559	0	123
79	647	0	125
79	693	0	125
79	877	0	128
79	890	0	128
79	990	0	128
79	993	0	128
79	1482	0	133
79	1500	0	133
79	1610	0	133
79	1700	0	133
79	1718	0	133
79	2034	0	135
79	2248	0	135
79	2262	0	135
79	2464	0	135
79	2686	0	135
79	2750	0	135
79	2762	0	135
79	2924	0	135
79	2974	0	135
79	3640	0	141
79	3684	0	141
79	4044	0	143
79	4068	0	143
79	4916	0	143
79	5068	0	143
79	5468	0	143
79	5628	0	143
79	5756	0	143
79	5844	0	143
79	6188	0	143
79	6288	0	143
79	6392	0	143
79	6508	0	143
79	7632	0	143
79	8240	0	143
79	9096	0	144
79	9432	0	144
79	10400	0	144
79	10496	0	144
79	10632	0	144
79	10704	0	144
79	10720	0	144
80	164	0	81
80	407	0	118
80	411	0	118
80	466	0	121
80	501	0	122
80	526	0	122
80	585	0	123
80	592	0	123
80	692	0	125
80	715	0	125
80	754	0	127
80	904	0	128
80	966	0	128
80	1254	0	133
80	1260	0	133
80	1512	0	133
80	1614	0	133
80	2446	0	135
80	2458	0	135
80	2688	0	135
80	2884	0	135
80	3232	0	135
80	3480	0	135
80	4144	0	143
80	4744	0	143
80	4864	0	143
80	4932	0	143
80	4992	0	143
80	5136	0	143
80	5152	0	143
80	5176	0	143
80	5272	0	143
80	5700	0	143
80	5836	0	143
80	6300	0	143
80	6532	0	143
80	8168	0	143
80	8288	0	143
80	8496	0	143
80	8648	0	143
80	9576	0	144
80	10184	0	144
80	10656	0	144
80	11136	0	144
80	11616	0	144
81	167	0	82
81	425	0	119
81	499	0	122
81	529	0	122
81	618	0	123
81	640	0	125
81	657	0	125
81	668	0	125
81	689	0	125
81	718	0	125
81	737	0	125
81	829	0	128
81	894	0	128
81	896	0	128
81	1334	0	133
81	1456	0	133
81	1588	0	133
81	1604	0	133
81	1608	0	133
81	1662	0	133
81	1758	0	133
81	2268	0	135
81	2280	0	135
81	2286	0	135
81	2332	0	135
81	2486	0	135
81	2512	0	135
81	2580	0	135
81	2732	0	135
81	2778	0	135
81	3360	0	135
81	3368	0	135
81	3472	0	135
81	3800	0	141
81	4052	0	143
81	5128	0	143
81	5140	0	143
81	5724	0	143
81	5732	0	143
81	6324	0	143
81	6340	0	143
81	6376	0	143
81	6396	0	143
81	6704	0	143
81	6736	0	143
81	7000	0	143
81	8768	0	144
81	9712	0	144
81	11608	0	144
82	172	0	83
82	364	0	118
82	649	0	125
82	880	0	128
82	900	0	128
82	971	0	128
82	1598	0	133
82	1852	0	133
82	2402	0	135
82	2996	0	135
82	4000	0	143
82	5708	0	143
82	6172	0	143
82	6924	0	143
82	9488	0	144
82	11304	0	144
83	174	0	84
83	178	0	84
83	359	0	117
83	417	0	118
83	486	0	122
83	560	0	123
83	632	0	125
83	652	0	125
83	683	0	125
83	695	0	125
83	772	0	128
83	823	0	128
83	881	0	128
83	913	0	128
83	1390	0	133
83	1522	0	133
83	1526	0	133
83	1714	0	133
83	1782	0	133
83	1954	0	133
83	2230	0	135
83	2304	0	135
83	2404	0	135
83	2654	0	135
83	2702	0	135
83	3444	0	135
83	3656	0	141
83	4228	0	143
83	4792	0	143
83	4984	0	143
83	5064	0	143
83	5188	0	143
83	5212	0	143
83	5596	0	143
83	5612	0	143
83	5852	0	143
83	6180	0	143
83	6240	0	143
83	6848	0	143
83	7304	0	143
83	7616	0	143
83	7976	0	143
83	8216	0	143
83	10584	0	144
83	11280	0	144
83	11720	0	144
84	187	0	85
84	358	0	117
84	389	0	118
84	392	0	118
84	474	0	121
84	505	0	122
84	539	0	123
84	736	0	125
84	820	0	128
84	826	0	128
84	902	0	128
84	1032	0	128
84	1252	0	133
84	1280	0	133
84	1300	0	133
84	1638	0	133
84	2310	0	135
84	2890	0	135
84	3116	0	135
84	3372	0	135
84	3572	0	141
84	4484	0	143
84	4724	0	143
84	4988	0	143
84	5060	0	143
84	5180	0	143
84	5280	0	143
84	5520	0	143
84	5584	0	143
84	5592	0	143
84	5768	0	143
84	5804	0	143
84	6660	0	143
84	7920	0	143
84	7960	0	143
84	8080	0	143
84	8160	0	143
84	8320	0	143
84	8552	0	143
84	9320	0	144
84	9472	0	144
84	9656	0	144
84	10696	0	144
85	190	0	86
85	745	0	125
85	1054	0	128
85	1688	0	133
85	2856	0	135
85	6044	0	143
85	7544	0	143
86	191	0	87
86	522	0	122
86	535	0	123
86	743	0	125
86	950	0	128
86	1050	0	128
86	1678	0	133
86	2236	0	135
86	2294	0	135
86	2474	0	135
86	2742	0	135
86	2866	0	135
86	2910	0	135
86	3396	0	135
86	3720	0	141
86	4456	0	143
86	4832	0	143
86	5684	0	143
86	5952	0	143
86	6368	0	143
86	8856	0	144
86	9024	0	144
86	10464	0	144
86	11048	0	144
87	192	0	88
87	194	0	89
87	521	0	122
87	623	0	123
87	744	0	125
87	869	0	128
87	1292	0	133
87	1338	0	133
87	1452	0	133
87	1690	0	133
87	1768	0	133
87	2532	0	135
87	2850	0	135
87	3408	0	135
87	3516	0	138
87	4628	0	143
87	4700	0	143
87	5968	0	143
87	6132	0	143
87	6440	0	143
87	9808	0	144
87	10432	0	144
87	10784	0	144
87	10920	0	144
88	193	0	89
88	2858	0	135
88	7576	0	143
89	195	0	90
89	221	0	98
89	348	0	114
89	441	0	119
89	703	0	125
89	747	0	126
89	865	0	128
89	988	0	128
89	1378	0	133
89	1386	0	133
89	1430	0	133
89	1462	0	133
89	1468	0	133
89	1582	0	133
89	1674	0	133
89	1762	0	133
89	2478	0	135
89	2492	0	135
89	2630	0	135
89	2696	0	135
89	2792	0	135
89	2796	0	135
89	3140	0	135
89	3392	0	135
89	4056	0	143
89	4276	0	143
89	4296	0	143
89	4376	0	143
89	4448	0	143
89	4660	0	143
89	5540	0	143
89	5556	0	143
89	5564	0	143
89	5812	0	143
89	6048	0	143
89	6108	0	143
89	6140	0	143
89	6320	0	143
89	7504	0	143
89	8064	0	143
89	8760	0	144
89	9240	0	144
89	10448	0	144
89	10528	0	144
89	11552	0	144
90	199	0	91
90	958	0	128
90	1056	0	128
90	2848	0	135
90	2860	0	135
90	3512	0	137
90	4620	0	143
90	6452	0	143
90	6460	0	143
90	7568	0	143
90	9000	0	144
90	9184	0	144
90	10224	0	144
90	10816	0	144
91	204	0	92
91	229	0	101
91	403	0	118
91	481	0	122
91	565	0	123
91	962	0	128
91	1200	0	133
91	1294	0	133
91	1488	0	133
91	2530	0	135
91	2624	0	135
91	2678	0	135
91	2756	0	135
91	2906	0	135
91	2968	0	135
91	3276	0	135
91	3320	0	135
91	3716	0	141
91	4060	0	143
91	4204	0	143
91	4352	0	143
91	4608	0	143
91	5972	0	143
91	6480	0	143
91	7408	0	143
91	8128	0	143
91	8984	0	144
91	9208	0	144
91	9288	0	144
91	10808	0	144
91	10824	0	144
91	10944	0	144
91	10960	0	144
91	11112	0	144
92	208	0	93
92	686	0	125
92	688	0	125
92	768	0	128
92	819	0	128
92	848	0	128
92	882	0	128
92	909	0	128
92	1076	0	128
92	1208	0	133
92	1404	0	133
92	1434	0	133
92	1508	0	133
92	1570	0	133
92	1640	0	133
92	2036	0	135
92	2616	0	135
92	2726	0	135
92	2786	0	135
92	2934	0	135
92	2966	0	135
92	3200	0	135
92	3272	0	135
92	3284	0	135
92	3588	0	141
92	3660	0	141
92	4396	0	143
92	4460	0	143
92	4688	0	143
92	5244	0	143
92	6224	0	143
92	6236	0	143
92	6428	0	143
92	6640	0	143
92	8544	0	143
92	9080	0	144
92	10032	0	144
92	10192	0	144
92	10616	0	144
93	210	0	94
93	444	0	119
93	617	0	123
93	662	0	125
93	725	0	125
93	733	0	125
93	965	0	128
93	1044	0	128
93	1220	0	133
93	1566	0	133
93	1652	0	133
93	2010	0	135
93	2270	0	135
93	2334	0	135
93	2438	0	135
93	2730	0	135
93	2984	0	135
93	3068	0	135
93	3236	0	135
93	3460	0	135
93	3540	0	141
93	3796	0	141
93	4216	0	143
93	4412	0	143
93	4512	0	143
93	4756	0	143
93	5108	0	143
93	5124	0	143
93	5456	0	143
93	6148	0	143
93	6516	0	143
93	6836	0	143
93	6952	0	143
93	7040	0	143
93	7488	0	143
93	8280	0	143
93	9400	0	144
93	9664	0	144
93	11512	0	144
93	11768	0	144
94	211	0	95
94	382	0	118
94	395	0	118
94	413	0	118
94	443	0	119
94	445	0	119
94	471	0	121
94	538	0	123
94	643	0	125
94	655	0	125
94	730	0	125
94	758	0	128
94	905	0	128
94	940	0	128
94	960	0	128
94	1130	0	128
94	1364	0	133
94	1502	0	133
94	1538	0	133
94	2198	0	135
94	2242	0	135
94	2296	0	135
94	2452	0	135
94	2456	0	135
94	2510	0	135
94	2570	0	135
94	2746	0	135
94	2928	0	135
94	3436	0	135
94	4304	0	143
94	4420	0	143
94	4504	0	143
94	4712	0	143
94	4760	0	143
94	5028	0	143
94	5116	0	143
94	5780	0	143
94	5988	0	143
94	6276	0	143
94	6284	0	143
94	6332	0	143
94	6512	0	143
94	7320	0	143
94	8048	0	143
94	8360	0	143
94	11080	0	144
94	11104	0	144
94	11176	0	144
94	11664	0	144
95	212	0	96
95	326	0	109
95	337	0	113
95	393	0	118
95	424	0	119
95	489	0	122
95	527	0	122
95	637	0	125
95	651	0	125
95	697	0	125
95	828	0	128
95	836	0	128
95	876	0	128
95	1132	0	128
95	1748	0	133
95	2224	0	135
95	2436	0	135
95	2518	0	135
95	2944	0	135
95	2986	0	135
95	3036	0	135
95	3304	0	135
95	3600	0	141
95	3744	0	141
95	4400	0	143
95	4924	0	143
95	4976	0	143
95	5260	0	143
95	5632	0	143
95	6432	0	143
95	6536	0	143
95	6820	0	143
95	7448	0	143
95	9128	0	144
95	9392	0	144
95	9840	0	144
95	10752	0	144
96	214	0	97
96	970	0	128
96	2952	0	135
96	4900	0	143
96	11376	0	144
97	216	0	98
97	1160	0	129
97	1184	0	132
97	2364	0	135
97	2370	0	135
97	2606	0	135
97	4892	0	143
97	7720	0	143
97	7808	0	143
97	7848	0	143
98	223	0	99
98	463	0	121
98	519	0	122
98	856	0	128
98	885	0	128
98	1016	0	128
98	1558	0	133
98	1734	0	133
98	2682	0	135
98	2712	0	135
98	2764	0	135
98	3072	0	135
98	3132	0	135
98	3432	0	135
98	3824	0	142
98	4024	0	143
98	4364	0	143
98	4736	0	143
98	4880	0	143
98	5048	0	143
98	5668	0	143
98	7672	0	143
98	7864	0	143
98	8608	0	143
98	8680	0	143
98	8800	0	144
98	8976	0	144
98	10768	0	144
99	225	0	100
99	232	0	103
99	343	0	113
99	434	0	119
99	713	0	125
99	738	0	125
99	756	0	127
99	861	0	128
99	864	0	128
99	883	0	128
99	908	0	128
99	1026	0	128
99	1276	0	133
99	1284	0	133
99	1586	0	133
99	1602	0	133
99	1720	0	133
99	1742	0	133
99	2720	0	135
99	2802	0	135
99	2932	0	135
99	3016	0	135
99	3112	0	135
99	3252	0	135
99	4464	0	143
99	4480	0	143
99	5076	0	143
99	5132	0	143
99	5928	0	143
99	5980	0	143
99	6208	0	143
99	6676	0	143
99	8056	0	143
99	9720	0	144
99	9752	0	144
99	11128	0	144
99	11328	0	144
99	11648	0	144
100	227	0	101
100	532	0	122
100	867	0	128
100	892	0	128
100	1084	0	128
100	1224	0	133
100	1238	0	133
100	1480	0	133
100	1626	0	133
100	1856	0	133
100	2780	0	135
100	2960	0	135
100	2978	0	135
100	3088	0	135
100	3544	0	141
100	3664	0	141
100	3768	0	141
100	4116	0	143
100	4300	0	143
100	4748	0	143
100	4960	0	143
100	4968	0	143
100	5816	0	143
100	6700	0	143
100	8032	0	143
100	8832	0	144
100	10016	0	144
100	10544	0	144
101	230	0	102
101	516	0	122
101	859	0	128
101	1060	0	128
101	1360	0	133
101	1490	0	133
101	2908	0	135
101	3164	0	135
101	4260	0	143
101	4272	0	143
101	6128	0	143
101	6456	0	143
101	7552	0	143
101	10272	0	144
101	10936	0	144
102	231	0	103
102	397	0	118
102	399	0	118
102	570	0	123
102	741	0	125
102	748	0	126
102	1048	0	128
102	1064	0	128
102	1206	0	133
102	1214	0	133
102	1232	0	133
102	1352	0	133
102	1736	0	133
102	2330	0	135
102	2626	0	135
102	2638	0	135
102	2774	0	135
102	2806	0	135
102	2918	0	135
102	2970	0	135
102	3336	0	135
102	3788	0	141
102	4828	0	143
102	6036	0	143
102	6348	0	143
102	6444	0	143
102	7528	0	143
102	7872	0	143
102	8272	0	143
102	8616	0	143
102	8744	0	144
102	8776	0	144
102	8792	0	144
102	9280	0	144
102	10096	0	144
102	10264	0	144
102	10424	0	144
102	10712	0	144
103	234	0	104
103	324	0	109
103	428	0	119
103	477	0	121
103	500	0	122
103	594	0	123
103	984	0	128
103	1234	0	133
103	1312	0	133
103	1752	0	133
103	2040	0	135
103	2264	0	135
103	2810	0	135
103	2870	0	135
103	3424	0	135
103	3596	0	141
103	4716	0	143
103	5196	0	143
103	6076	0	143
103	6096	0	143
103	6212	0	143
103	6652	0	143
103	6692	0	143
103	7904	0	143
103	8112	0	143
103	8528	0	143
103	8592	0	143
103	9528	0	144
103	10992	0	144
104	238	0	105
104	447	0	119
104	616	0	123
104	659	0	125
104	925	0	128
104	985	0	128
104	1394	0	133
104	1444	0	133
104	1472	0	133
104	2220	0	135
104	2306	0	135
104	2514	0	135
104	2838	0	135
104	2880	0	135
104	2926	0	135
104	3032	0	135
104	3428	0	135
104	3624	0	141
104	3880	0	143
104	4312	0	143
104	4868	0	143
104	5644	0	143
104	5792	0	143
104	5944	0	143
104	6056	0	143
104	6072	0	143
104	6520	0	143
104	9416	0	144
104	9560	0	144
104	9744	0	144
104	10064	0	144
104	10728	0	144
105	240	0	106
105	496	0	122
105	498	0	122
105	653	0	125
105	721	0	125
105	817	0	128
105	910	0	128
105	922	0	128
105	1664	0	133
105	1906	0	133
105	2564	0	135
105	2706	0	135
105	2816	0	135
105	2962	0	135
105	3180	0	135
105	3420	0	135
105	3884	0	143
105	3892	0	143
105	4416	0	143
105	4596	0	143
105	5200	0	143
105	5448	0	143
105	5616	0	143
105	6744	0	143
105	6956	0	143
105	7312	0	143
105	9776	0	144
105	9856	0	144
105	9984	0	144
105	10056	0	144
105	11184	0	144
105	11656	0	144
106	247	0	107
106	255	0	108
106	276	0	109
106	2060	0	135
106	2064	0	135
106	2100	0	135
106	5364	0	143
106	5892	0	143
106	9904	0	144
107	254	0	108
107	264	0	108
107	678	0	125
107	786	0	128
107	805	0	128
107	1794	0	133
107	1812	0	133
107	1816	0	133
107	1900	0	133
107	1960	0	133
107	2092	0	135
107	2106	0	135
107	2164	0	135
107	2418	0	135
107	2554	0	135
107	6564	0	143
107	6764	0	143
107	6792	0	143
107	7264	0	143
108	267	0	109
108	271	0	109
108	275	0	109
108	795	0	128
108	2172	0	135
108	6768	0	143
108	7216	0	143
108	9888	0	144
109	329	0	110
109	431	0	119
109	495	0	122
109	685	0	125
109	701	0	125
109	948	0	128
109	986	0	128
109	1218	0	133
109	1348	0	133
109	1726	0	133
109	1862	0	133
109	2466	0	135
109	2500	0	135
109	2646	0	135
109	3084	0	135
109	3260	0	135
109	3608	0	141
109	3948	0	143
109	4048	0	143
109	5092	0	143
109	5572	0	143
109	5864	0	143
109	5984	0	143
109	6216	0	143
109	6648	0	143
109	6680	0	143
109	6812	0	143
109	7952	0	143
109	9544	0	144
109	10600	0	144
109	11352	0	144
109	11576	0	144
109	11776	0	145
110	331	0	111
110	340	0	113
110	456	0	119
110	478	0	121
110	593	0	123
110	646	0	125
110	831	0	128
110	884	0	128
110	943	0	128
110	1080	0	128
110	1274	0	133
110	1320	0	133
110	1328	0	133
110	1484	0	133
110	1562	0	133
110	2012	0	135
110	2318	0	135
110	2322	0	135
110	2328	0	135
110	2590	0	135
110	2914	0	135
110	3384	0	135
110	3636	0	141
110	3840	0	142
110	3852	0	142
110	4384	0	143
110	4788	0	143
110	4912	0	143
110	5164	0	143
110	6008	0	143
110	6184	0	143
110	6228	0	143
110	6280	0	143
110	7056	0	143
110	8104	0	143
110	8304	0	143
110	8664	0	143
110	9360	0	144
110	9408	0	144
110	9448	0	144
110	10840	0	144
110	11488	0	144
110	11640	0	144
110	11672	0	144
111	333	0	112
111	355	0	117
111	432	0	119
111	438	0	119
111	473	0	121
111	485	0	122
111	508	0	122
111	552	0	123
111	567	0	123
111	773	0	128
111	923	0	128
111	967	0	128
111	1004	0	128
111	1124	0	128
111	1226	0	133
111	1446	0	133
111	1780	0	133
111	2566	0	135
111	2876	0	135
111	2922	0	135
111	3044	0	135
111	3352	0	135
111	3708	0	141
111	3812	0	141
111	4392	0	143
111	4408	0	143
111	4476	0	143
111	5620	0	143
111	5764	0	143
111	5788	0	143
111	6600	0	143
111	6960	0	143
111	7104	0	143
111	7520	0	143
111	8040	0	143
111	8176	0	143
111	9848	0	144
111	10504	0	144
111	11088	0	144
111	11152	0	144
112	335	0	113
112	386	0	118
112	406	0	118
112	468	0	121
112	483	0	122
112	506	0	122
112	524	0	122
112	633	0	125
112	636	0	125
112	954	0	128
112	1112	0	128
112	1134	0	128
112	1230	0	133
112	1242	0	133
112	1246	0	133
112	1440	0	133
112	2628	0	135
112	2652	0	135
112	2798	0	135
112	2872	0	135
112	2958	0	135
112	3196	0	135
112	3216	0	135
112	3228	0	135
112	3484	0	135
112	3704	0	141
112	3804	0	141
112	4032	0	143
112	4212	0	143
112	5012	0	143
112	6068	0	143
112	7888	0	143
112	8424	0	143
112	8944	0	144
112	9592	0	144
112	9784	0	144
112	10624	0	144
112	11624	0	144
113	345	0	114
113	442	0	119
113	520	0	122
113	749	0	126
113	868	0	128
113	906	0	128
113	1136	0	128
113	1146	0	128
113	1336	0	133
113	1362	0	133
113	1400	0	133
113	1492	0	133
113	1694	0	133
113	2442	0	135
113	2618	0	135
113	3488	0	135
113	3520	0	139
113	4112	0	143
113	4196	0	143
113	4424	0	143
113	4444	0	143
113	4692	0	143
113	5692	0	143
113	5964	0	143
113	7656	0	143
113	8192	0	143
113	8840	0	144
113	9224	0	144
113	9272	0	144
113	10392	0	144
113	10792	0	144
113	11120	0	144
114	349	0	115
114	699	0	125
114	1030	0	128
114	1308	0	133
114	1382	0	133
114	1398	0	133
114	1408	0	133
114	1584	0	133
114	1606	0	133
114	1634	0	133
114	2690	0	135
114	2736	0	135
114	2782	0	135
114	2808	0	135
114	2930	0	135
114	3012	0	135
114	3040	0	135
114	3144	0	135
114	3208	0	135
114	3376	0	135
114	3584	0	141
114	3612	0	141
114	3968	0	143
114	4092	0	143
114	4160	0	143
114	4292	0	143
114	4372	0	143
114	4492	0	143
114	4520	0	143
114	5172	0	143
114	5516	0	143
114	5820	0	143
114	6344	0	143
114	6940	0	143
114	7648	0	143
114	8208	0	143
114	8400	0	143
114	8920	0	144
114	9040	0	144
114	9736	0	144
114	11000	0	144
114	11160	0	144
115	350	0	116
115	396	0	118
115	470	0	121
115	684	0	125
115	704	0	125
115	835	0	128
115	887	0	128
115	1278	0	133
115	1326	0	133
115	1354	0	133
115	1436	0	133
115	2232	0	135
115	2252	0	135
115	2668	0	135
115	2900	0	135
115	2916	0	135
115	4020	0	143
115	4084	0	143
115	4528	0	143
115	4652	0	143
115	4680	0	143
115	4876	0	143
115	5192	0	143
115	5236	0	143
115	5872	0	143
115	6152	0	143
115	6404	0	143
115	6732	0	143
115	6876	0	143
115	7336	0	143
115	9160	0	144
115	9512	0	144
115	9832	0	144
115	10080	0	144
116	351	0	117
116	502	0	122
116	510	0	122
116	537	0	123
116	588	0	123
116	702	0	125
116	729	0	125
116	1402	0	133
116	1644	0	133
116	1710	0	133
116	1860	0	133
116	2228	0	135
116	2648	0	135
116	2874	0	135
116	2972	0	135
116	3064	0	135
116	3576	0	141
116	3680	0	141
116	4088	0	143
116	4432	0	143
116	5276	0	143
116	5464	0	143
116	5524	0	143
116	5776	0	143
116	5856	0	143
116	6424	0	143
116	6684	0	143
116	7048	0	143
116	8144	0	143
116	8408	0	143
116	8816	0	144
116	8872	0	144
116	9520	0	144
116	9992	0	144
116	10360	0	144
116	11448	0	144
117	363	0	118
117	415	0	118
117	614	0	123
117	838	0	128
117	932	0	128
117	2832	0	135
117	3560	0	141
117	5604	0	143
117	6264	0	143
117	7080	0	143
117	9064	0	144
117	11424	0	144
118	421	0	119
118	706	0	125
118	927	0	128
118	1038	0	128
118	1368	0	133
118	1416	0	133
118	2398	0	135
118	6028	0	143
118	6888	0	143
118	7464	0	143
118	10128	0	144
118	11408	0	144
119	461	0	120
119	1176	0	131
119	1554	0	133
119	2340	0	135
119	2388	0	135
119	2596	0	135
119	2602	0	135
119	7728	0	143
119	7824	0	143
119	7840	0	143
120	462	0	121
120	1154	0	128
120	1174	0	131
120	1194	0	133
120	1552	0	133
120	2384	0	135
120	2394	0	135
120	2610	0	135
120	4884	0	143
120	7752	0	143
120	7816	0	143
121	479	0	122
121	731	0	125
121	832	0	128
121	1000	0	128
121	1070	0	128
121	1356	0	133
121	1396	0	133
121	1498	0	133
121	1506	0	133
121	1550	0	133
121	2316	0	135
121	2612	0	135
121	2670	0	135
121	3632	0	141
121	3728	0	141
121	3736	0	141
121	4812	0	143
121	5024	0	143
121	6292	0	143
121	6416	0	143
121	6500	0	143
121	6896	0	143
121	7016	0	143
121	10168	0	144
121	11016	0	144
122	534	0	123
122	952	0	128
122	963	0	128
122	1358	0	133
122	1548	0	133
122	2290	0	135
122	2470	0	135
122	4268	0	143
122	4320	0	143
122	6120	0	143
122	6312	0	143
122	7560	0	143
122	8752	0	144
122	9016	0	144
122	9216	0	144
123	624	0	124
123	1202	0	133
123	1772	0	133
123	3160	0	135
123	4348	0	143
123	4624	0	143
123	6116	0	143
123	6360	0	143
123	6468	0	143
123	7584	0	143
123	9008	0	144
123	10952	0	144
124	625	0	125
124	951	0	128
124	1022	0	128
124	1344	0	133
124	1620	0	133
124	1686	0	133
124	1770	0	133
124	2020	0	135
124	2238	0	135
124	2740	0	135
124	2772	0	135
124	4184	0	143
124	4856	0	143
124	5544	0	143
124	5552	0	143
124	5560	0	143
124	6040	0	143
124	6476	0	143
124	6492	0	143
124	7392	0	143
124	7592	0	143
124	8992	0	144
124	9200	0	144
124	10216	0	144
124	10376	0	144
124	10912	0	144
125	746	0	126
125	1148	0	128
125	1152	0	128
125	1196	0	133
125	2018	0	135
125	2854	0	135
125	3136	0	135
125	4344	0	143
125	6364	0	143
125	9176	0	144
125	10776	0	144
125	11560	0	144
126	752	0	127
126	1052	0	128
126	1062	0	128
126	1342	0	133
126	1682	0	133
126	1774	0	133
126	2490	0	135
126	2846	0	135
126	4124	0	143
126	4176	0	143
126	4264	0	143
126	4616	0	143
126	4844	0	143
126	6356	0	143
126	9192	0	144
126	10976	0	144
127	757	0	128
127	955	0	128
127	1106	0	128
127	1272	0	133
127	1318	0	133
127	2498	0	135
127	2878	0	135
127	2892	0	135
127	2988	0	135
127	4240	0	143
127	4972	0	143
127	4980	0	143
127	4996	0	143
127	5156	0	143
127	5444	0	143
127	5728	0	143
127	6804	0	143
127	9960	0	144
128	1158	0	129
128	1166	0	130
128	2344	0	135
128	2348	0	135
128	2352	0	135
128	2382	0	135
128	2598	0	135
128	4888	0	143
128	7704	0	143
128	7736	0	143
129	1162	0	130
129	1170	0	131
129	1182	0	132
129	2342	0	135
129	2346	0	135
129	2350	0	135
129	2354	0	135
129	2386	0	135
129	7688	0	143
129	7744	0	143
130	1168	0	131
130	2360	0	135
130	2372	0	135
130	2376	0	135
130	2604	0	135
130	7768	0	143
130	7832	0	143
131	1180	0	132
131	1188	0	132
131	2358	0	135
131	2390	0	135
131	7712	0	143
131	7760	0	143
131	7776	0	143
131	7792	0	143
132	1676	0	133
132	1692	0	133
132	2852	0	135
132	4188	0	143
132	4612	0	143
132	4696	0	143
132	4820	0	143
132	6112	0	143
132	6124	0	143
132	10440	0	144
132	10928	0	144
133	1970	0	134
133	1974	0	134
133	1978	0	135
133	1982	0	135
133	1986	0	135
133	1992	0	135
133	1996	0	135
134	1976	0	135
134	1980	0	135
134	1988	0	135
134	1994	0	135
135	8728	0	144
135	10248	0	144

