version 3
run General-312-20250904-14:13:21-15724
attr configname General
attr datetime 20250904-14:13:21
attr datetimef 20250904-141321
attr experiment General
attr inifile omnetpp.ini
attr iterationvars ""
attr iterationvarsd ""
attr iterationvarsf ""
attr measurement ""
attr network TaxiNetwork
attr processid 15724
attr repetition 312
attr replication #312
attr resultdir results
attr runnumber 312
attr seedset 312
config network TaxiNetwork
config seed-set 312
config num-rngs 1
config sim-time-limit 10s
config repeat 500
config *.numWalkers 1
config *.enableDuplication true
config *.rc 700
config **.node[0].xCor 2933
config **.node[0].yCor 2747
config **.node[1].xCor 2919
config **.node[1].yCor 2817
config **.node[2].xCor 2910
config **.node[2].yCor 2861
config **.node[3].xCor 2429
config **.node[3].yCor 2851
config **.node[4].xCor 2908
config **.node[4].yCor 2714
config **.node[5].xCor 2606
config **.node[5].yCor 2722
config **.node[6].xCor 2575
config **.node[6].yCor 2753
config **.node[7].xCor 2654
config **.node[7].yCor 2513
config **.node[8].xCor 2773
config **.node[8].yCor 2580
config **.node[9].xCor 3043
config **.node[9].yCor 2780
config **.node[10].xCor 3020
config **.node[10].yCor 2813
config **.node[11].xCor 2599
config **.node[11].yCor 2300
config **.node[12].xCor 2917
config **.node[12].yCor 2698
config **.node[13].xCor 2625
config **.node[13].yCor 2641
config **.node[14].xCor 2604
config **.node[14].yCor 2790
config **.node[15].xCor 2786
config **.node[15].yCor 3082
config **.node[16].xCor 2603
config **.node[16].yCor 2802
config **.node[17].xCor 2637
config **.node[17].yCor 2869
config **.node[18].xCor 2675
config **.node[18].yCor 2955
config **.node[19].xCor 2845
config **.node[19].yCor 2937
config **.node[20].xCor 2860
config **.node[20].yCor 2888
config **.node[21].xCor 2843
config **.node[21].yCor 4158
config **.node[22].xCor 2852
config **.node[22].yCor 4017
config **.node[23].xCor 2892
config **.node[23].yCor 4961
config **.node[24].xCor 2313
config **.node[24].yCor 3993
config **.node[25].xCor 2891
config **.node[25].yCor 4959
config **.node[26].xCor 2370
config **.node[26].yCor 4050
config **.node[27].xCor 2788
config **.node[27].yCor 3958
config **.node[28].xCor 2819
config **.node[28].yCor 4428
config **.node[29].xCor 2790
config **.node[29].yCor 3761
config **.node[30].xCor 2809
config **.node[30].yCor 2908
config **.node[31].xCor 2919
config **.node[31].yCor 3575
config **.node[32].xCor 2946
config **.node[32].yCor 3466
config **.node[33].xCor 2911
config **.node[33].yCor 3453
config **.node[34].xCor 2370
config **.node[34].yCor 3656
config **.node[35].xCor 2438
config **.node[35].yCor 3738
config **.node[36].xCor 2737
config **.node[36].yCor 3570
config **.node[37].xCor 2921
config **.node[37].yCor 3698
config **.node[38].xCor 2907
config **.node[38].yCor 5197
config **.node[39].xCor 2860
config **.node[39].yCor 3852
config **.node[40].xCor 2927
config **.node[40].yCor 3684
config **.node[41].xCor 3023
config **.node[41].yCor 5313
config **.node[42].xCor 3220
config **.node[42].yCor 5811
config **.node[43].xCor 3432
config **.node[43].yCor 5715
config **.node[44].xCor 2754
config **.node[44].yCor 2463
config **.node[45].xCor 2646
config **.node[45].yCor 2673
config **.node[46].xCor 3051
config **.node[46].yCor 2792
config **.node[47].xCor 1666
config **.node[47].yCor 3697
config **.node[48].xCor 1662
config **.node[48].yCor 3694
config **.node[49].xCor 1664
config **.node[49].yCor 3667
config **.node[50].xCor 1660
config **.node[50].yCor 3664
config **.node[51].xCor 1710
config **.node[51].yCor 3573
config **.node[52].xCor 2082
config **.node[52].yCor 2650
config **.node[53].xCor 2086
config **.node[53].yCor 2657
config **.node[54].xCor 2257
config **.node[54].yCor 3232
config **.node[55].xCor 2258
config **.node[55].yCor 3225
config **.node[56].xCor 1926
config **.node[56].yCor 2570
config **.node[57].xCor 1926
config **.node[57].yCor 2576
config **.node[58].xCor 2104
config **.node[58].yCor 1758
config **.node[59].xCor 1957
config **.node[59].yCor 1826
config **.node[60].xCor 3473
config **.node[60].yCor 1523
config **.node[61].xCor 3335
config **.node[61].yCor 1726
config **.node[62].xCor 3478
config **.node[62].yCor 1517
config **.node[63].xCor 3386
config **.node[63].yCor 2119
config **.node[64].xCor 3474
config **.node[64].yCor 1762
config **.node[65].xCor 3797
config **.node[65].yCor 2099
config **.node[66].xCor 3642
config **.node[66].yCor 2136
config **.node[67].xCor 3481
config **.node[67].yCor 2334
config **.node[68].xCor 3088
config **.node[68].yCor 1505
config **.node[69].xCor 3037
config **.node[69].yCor 1693
config **.node[70].xCor 3026
config **.node[70].yCor 1700
config **.node[71].xCor 3019
config **.node[71].yCor 669
config **.node[72].xCor 3513
config **.node[72].yCor 1358
config **.node[73].xCor 3545
config **.node[73].yCor 1230
config **.node[74].xCor 4228
config **.node[74].yCor 4220
config **.node[75].xCor 3379
config **.node[75].yCor 1207
config **.node[76].xCor 3596
config **.node[76].yCor 963
config **.node[77].xCor 3637
config **.node[77].yCor 1188
config **.node[78].xCor 3759
config **.node[78].yCor 1030
config **.node[79].xCor 2918
config **.node[79].yCor 1455
config **.node[80].xCor 2711
config **.node[80].yCor 1297
config **.node[81].xCor 439
config **.node[81].yCor 1623
config **.node[82].xCor 2857
config **.node[82].yCor 3581
config **.node[83].xCor 2858
config **.node[83].yCor 3584
config **.node[84].xCor 2999
config **.node[84].yCor 2636
config **.node[85].xCor 2905
config **.node[85].yCor 2778
config **.node[86].xCor 2653
config **.node[86].yCor 2845
config **.node[87].xCor 2864
config **.node[87].yCor 2836
config **.node[88].xCor 2426
config **.node[88].yCor 2892
config **.node[89].xCor 2964
config **.node[89].yCor 2804
config **.node[90].xCor 2586
config **.node[90].yCor 3135
config **.node[91].xCor 2864
config **.node[91].yCor 2980
config **.node[92].xCor 2527
config **.node[92].yCor 3219
config **.node[93].xCor 2863
config **.node[93].yCor 3142
config **.node[94].xCor 2485
config **.node[94].yCor 3269
config **.node[95].xCor 2653
config **.node[95].yCor 1065
config **.node[96].xCor 4062
config **.node[96].yCor 400
config **.node[97].xCor 5762
config **.node[97].yCor 3023
config **.node[98].xCor 1414
config **.node[98].yCor 3461
config **.node[99].xCor 2911
config **.node[99].yCor 1737
config **.node[100].xCor 2595
config **.node[100].yCor 2299
config **.node[101].xCor 2702
config **.node[101].yCor 3419
config **.node[102].xCor 2813
config **.node[102].yCor 3307
config **.node[103].xCor 2638
config **.node[103].yCor 2258
config **.node[104].xCor 2590
config **.node[104].yCor 3125
config **.node[105].xCor 1856
config **.node[105].yCor 2990
config **.node[106].xCor 1894
config **.node[106].yCor 2239
config **.node[107].xCor 383
config **.node[107].yCor 1251
config **.node[108].xCor 3447
config **.node[108].yCor 5489
config **.node[109].xCor 3450
config **.node[109].yCor 5697
config **.node[110].xCor 2719
config **.node[110].yCor 1920
config **.node[111].xCor 2085
config **.node[111].yCor 2389
config **.node[112].xCor 1910
config **.node[112].yCor 2548
config **.node[113].xCor 2069
config **.node[113].yCor 2050
config **.node[114].xCor 2184
config **.node[114].yCor 2209
config **.node[115].xCor 2278
config **.node[115].yCor 2390
config **.node[116].xCor 2249
config **.node[116].yCor 2299
config **.node[117].xCor 2356
config **.node[117].yCor 2303
config **.node[118].xCor 2192
config **.node[118].yCor 2475
config **.node[119].xCor 1720
config **.node[119].yCor 2911
config **.node[120].xCor 2400
config **.node[120].yCor 2887
config **.node[121].xCor 3344
config **.node[121].yCor 1890
config **.node[122].xCor 3136
config **.node[122].yCor 2418
config **.node[123].xCor 3243
config **.node[123].yCor 2525
config **.node[124].xCor 2396
config **.node[124].yCor 1267
config **.node[125].xCor 467
config **.node[125].yCor 1875
config **.node[126].xCor 3506
config **.node[126].yCor 1221
config **.node[127].xCor 1034
config **.node[127].yCor 1474
config **.node[128].xCor 2908
config **.node[128].yCor 1784
config **.node[129].xCor 2876
config **.node[129].yCor 1761
config **.node[130].xCor 2849
config **.node[130].yCor 1795
config **.node[131].xCor 3029
config **.node[131].yCor 1859
config **.node[132].xCor 2924
config **.node[132].yCor 1848
config **.node[133].xCor 3493
config **.node[133].yCor 1559
config **.node[134].xCor 2760
config **.node[134].yCor 1761
config **.node[135].xCor 1644
config **.node[135].yCor 3755
config **.node[136].xCor 1463
config **.node[136].yCor 3432
config **.node[137].xCor 2595
config **.node[137].yCor 2849
config **.node[138].xCor 2581
config **.node[138].yCor 2867
config **.node[139].xCor 2524
config **.node[139].yCor 2911
config **.node[140].xCor 2570
config **.node[140].yCor 2924
config **.node[141].xCor 2676
config **.node[141].yCor 2890
config **.node[142].xCor 2666
config **.node[142].yCor 2876
config **.node[143].xCor 3735
config **.node[143].yCor 1726
config **.node[144].xCor 1637
config **.node[144].yCor 3438

vector 0 TaxiNetwork.node[90] visitedPerTimestep ETV
vector 1 TaxiNetwork.node[29] visitedPerTimestep ETV
vector 2 TaxiNetwork.node[92] visitedPerTimestep ETV
vector 3 TaxiNetwork.node[2] visitedPerTimestep ETV
vector 4 TaxiNetwork.node[91] visitedPerTimestep ETV
vector 5 TaxiNetwork.node[20] visitedPerTimestep ETV
vector 6 TaxiNetwork.node[0] visitedPerTimestep ETV
vector 7 TaxiNetwork.node[3] visitedPerTimestep ETV
vector 8 TaxiNetwork.node[138] visitedPerTimestep ETV
vector 9 TaxiNetwork.node[6] visitedPerTimestep ETV
vector 10 TaxiNetwork.node[140] visitedPerTimestep ETV
vector 11 TaxiNetwork.node[104] visitedPerTimestep ETV
vector 12 TaxiNetwork.node[5] visitedPerTimestep ETV
vector 13 TaxiNetwork.node[52] visitedPerTimestep ETV
vector 14 TaxiNetwork.node[7] visitedPerTimestep ETV
vector 15 TaxiNetwork.node[141] visitedPerTimestep ETV
vector 16 TaxiNetwork.node[14] visitedPerTimestep ETV
vector 17 TaxiNetwork.node[13] visitedPerTimestep ETV
vector 18 TaxiNetwork.node[19] visitedPerTimestep ETV
vector 19 TaxiNetwork.node[45] visitedPerTimestep ETV
vector 20 TaxiNetwork.node[122] visitedPerTimestep ETV
vector 21 TaxiNetwork.node[54] visitedPerTimestep ETV
vector 22 TaxiNetwork.node[137] visitedPerTimestep ETV
vector 23 TaxiNetwork.node[102] visitedPerTimestep ETV
vector 24 TaxiNetwork.node[32] visitedPerTimestep ETV
vector 25 TaxiNetwork.node[35] visitedPerTimestep ETV
vector 26 TaxiNetwork.node[37] visitedPerTimestep ETV
vector 27 TaxiNetwork.node[15] visitedPerTimestep ETV
vector 28 TaxiNetwork.node[10] visitedPerTimestep ETV
vector 29 TaxiNetwork.node[101] visitedPerTimestep ETV
vector 30 TaxiNetwork.node[89] visitedPerTimestep ETV
vector 31 TaxiNetwork.node[46] visitedPerTimestep ETV
vector 32 TaxiNetwork.node[94] visitedPerTimestep ETV
vector 33 TaxiNetwork.node[74] visitedPerTimestep ETV
vector 34 TaxiNetwork.node[93] visitedPerTimestep ETV
vector 35 TaxiNetwork.node[16] visitedPerTimestep ETV
vector 36 TaxiNetwork.node[116] visitedPerTimestep ETV
vector 37 TaxiNetwork.node[59] visitedPerTimestep ETV
vector 38 TaxiNetwork.node[114] visitedPerTimestep ETV
vector 39 TaxiNetwork.node[87] visitedPerTimestep ETV
vector 40 TaxiNetwork.node[139] visitedPerTimestep ETV
vector 41 TaxiNetwork.node[86] visitedPerTimestep ETV
vector 42 TaxiNetwork.node[53] visitedPerTimestep ETV
vector 43 TaxiNetwork.node[88] visitedPerTimestep ETV
vector 44 TaxiNetwork.node[33] visitedPerTimestep ETV
vector 45 TaxiNetwork.node[36] visitedPerTimestep ETV
vector 46 TaxiNetwork.node[40] visitedPerTimestep ETV
vector 47 TaxiNetwork.node[103] visitedPerTimestep ETV
vector 48 TaxiNetwork.node[9] visitedPerTimestep ETV
vector 49 TaxiNetwork.node[112] visitedPerTimestep ETV
vector 50 TaxiNetwork.node[120] visitedPerTimestep ETV
vector 51 TaxiNetwork.node[17] visitedPerTimestep ETV
vector 52 TaxiNetwork.node[123] visitedPerTimestep ETV
vector 53 TaxiNetwork.node[18] visitedPerTimestep ETV
vector 54 TaxiNetwork.node[84] visitedPerTimestep ETV
vector 55 TaxiNetwork.node[12] visitedPerTimestep ETV
vector 56 TaxiNetwork.node[83] visitedPerTimestep ETV
vector 57 TaxiNetwork.node[21] visitedPerTimestep ETV
vector 58 TaxiNetwork.node[26] visitedPerTimestep ETV
vector 59 TaxiNetwork.node[82] visitedPerTimestep ETV
vector 60 TaxiNetwork.node[24] visitedPerTimestep ETV
vector 61 TaxiNetwork.node[142] visitedPerTimestep ETV
vector 62 TaxiNetwork.node[30] visitedPerTimestep ETV
vector 63 TaxiNetwork.node[22] visitedPerTimestep ETV
vector 64 TaxiNetwork.node[28] visitedPerTimestep ETV
vector 65 TaxiNetwork.node[39] visitedPerTimestep ETV
vector 66 TaxiNetwork.node[11] visitedPerTimestep ETV
vector 67 TaxiNetwork.node[111] visitedPerTimestep ETV
vector 68 TaxiNetwork.node[119] visitedPerTimestep ETV
vector 69 TaxiNetwork.node[44] visitedPerTimestep ETV
vector 70 TaxiNetwork.node[31] visitedPerTimestep ETV
vector 71 TaxiNetwork.node[55] visitedPerTimestep ETV
vector 72 TaxiNetwork.node[51] visitedPerTimestep ETV
vector 73 TaxiNetwork.node[136] visitedPerTimestep ETV
vector 74 TaxiNetwork.node[50] visitedPerTimestep ETV
vector 75 TaxiNetwork.node[135] visitedPerTimestep ETV
vector 76 TaxiNetwork.node[49] visitedPerTimestep ETV
vector 77 TaxiNetwork.node[48] visitedPerTimestep ETV
vector 78 TaxiNetwork.node[98] visitedPerTimestep ETV
vector 79 TaxiNetwork.node[47] visitedPerTimestep ETV
vector 80 TaxiNetwork.node[118] visitedPerTimestep ETV
vector 81 TaxiNetwork.node[56] visitedPerTimestep ETV
vector 82 TaxiNetwork.node[8] visitedPerTimestep ETV
vector 83 TaxiNetwork.node[85] visitedPerTimestep ETV
vector 84 TaxiNetwork.node[117] visitedPerTimestep ETV
vector 85 TaxiNetwork.node[110] visitedPerTimestep ETV
vector 86 TaxiNetwork.node[4] visitedPerTimestep ETV
vector 87 TaxiNetwork.node[115] visitedPerTimestep ETV
vector 88 TaxiNetwork.node[100] visitedPerTimestep ETV
vector 89 TaxiNetwork.node[1] visitedPerTimestep ETV
vector 90 TaxiNetwork.node[121] visitedPerTimestep ETV
vector 91 TaxiNetwork.node[134] visitedPerTimestep ETV
vector 92 TaxiNetwork.node[68] visitedPerTimestep ETV
vector 93 TaxiNetwork.node[69] visitedPerTimestep ETV
vector 94 TaxiNetwork.node[131] visitedPerTimestep ETV
vector 95 TaxiNetwork.node[113] visitedPerTimestep ETV
vector 96 TaxiNetwork.node[34] visitedPerTimestep ETV
vector 97 TaxiNetwork.node[27] visitedPerTimestep ETV
vector 98 TaxiNetwork.node[106] visitedPerTimestep ETV
vector 99 TaxiNetwork.node[57] visitedPerTimestep ETV
vector 100 TaxiNetwork.node[72] visitedPerTimestep ETV
vector 101 TaxiNetwork.node[64] visitedPerTimestep ETV
vector 102 TaxiNetwork.node[61] visitedPerTimestep ETV
vector 103 TaxiNetwork.node[63] visitedPerTimestep ETV
vector 104 TaxiNetwork.node[67] visitedPerTimestep ETV
vector 105 TaxiNetwork.node[128] visitedPerTimestep ETV
vector 106 TaxiNetwork.node[62] visitedPerTimestep ETV
vector 107 TaxiNetwork.node[70] visitedPerTimestep ETV
vector 108 TaxiNetwork.node[132] visitedPerTimestep ETV
vector 109 TaxiNetwork.node[144] visitedPerTimestep ETV
vector 110 TaxiNetwork.node[58] visitedPerTimestep ETV
vector 111 TaxiNetwork.node[77] visitedPerTimestep ETV
vector 112 TaxiNetwork.node[133] visitedPerTimestep ETV
vector 113 TaxiNetwork.node[73] visitedPerTimestep ETV
vector 114 TaxiNetwork.node[80] visitedPerTimestep ETV
vector 115 TaxiNetwork.node[75] visitedPerTimestep ETV
vector 116 TaxiNetwork.node[99] visitedPerTimestep ETV
vector 117 TaxiNetwork.node[79] visitedPerTimestep ETV
vector 118 TaxiNetwork.node[130] visitedPerTimestep ETV
vector 119 TaxiNetwork.node[105] visitedPerTimestep ETV
vector 120 TaxiNetwork.node[129] visitedPerTimestep ETV
vector 121 TaxiNetwork.node[124] visitedPerTimestep ETV
vector 122 TaxiNetwork.node[143] visitedPerTimestep ETV
vector 123 TaxiNetwork.node[60] visitedPerTimestep ETV
vector 124 TaxiNetwork.node[78] visitedPerTimestep ETV
vector 125 TaxiNetwork.node[66] visitedPerTimestep ETV
vector 126 TaxiNetwork.node[95] visitedPerTimestep ETV
vector 127 TaxiNetwork.node[76] visitedPerTimestep ETV
vector 128 TaxiNetwork.node[126] visitedPerTimestep ETV
vector 129 TaxiNetwork.node[71] visitedPerTimestep ETV
vector 130 TaxiNetwork.node[65] visitedPerTimestep ETV
vector 131 TaxiNetwork.node[108] visitedPerTimestep ETV
vector 132 TaxiNetwork.node[127] visitedPerTimestep ETV
vector 133 TaxiNetwork.node[107] visitedPerTimestep ETV
vector 134 TaxiNetwork.node[125] visitedPerTimestep ETV
vector 135 TaxiNetwork.node[81] visitedPerTimestep ETV
0	1	0	1
0	26	0	19
0	88	0	49
0	95	0	51
0	218	0	82
0	354	0	96
0	482	0	109
0	484	0	109
0	622	0	110
0	681	0	110
0	729	0	110
0	838	0	119
0	840	0	119
0	907	0	119
0	949	0	120
0	1106	0	120
0	1134	0	120
0	1580	0	124
0	1584	0	124
0	1614	0	124
0	1662	0	124
0	1798	0	127
0	2108	0	129
0	2160	0	129
0	2240	0	130
0	2440	0	133
0	2882	0	135
0	2942	0	135
0	2956	0	135
0	3204	0	135
0	3744	0	135
0	3852	0	135
0	3912	0	135
0	4540	0	137
0	4564	0	137
0	5156	0	140
0	5548	0	140
0	5692	0	140
0	5756	0	140
0	6228	0	141
0	6596	0	141
0	7016	0	141
0	7152	0	141
0	7632	0	141
0	8488	0	141
0	8680	0	141
1	2	0	2
1	217	0	82
1	262	0	87
1	363	0	98
1	916	0	120
1	1618	0	124
1	1750	0	124
1	2214	0	130
1	2220	0	130
1	4124	0	135
1	4328	0	137
1	4352	0	137
1	4544	0	137
1	4756	0	137
1	5596	0	140
1	5752	0	140
1	6600	0	141
1	7256	0	141
1	7424	0	141
1	7680	0	141
1	7728	0	141
2	3	0	3
2	13	0	12
2	78	0	49
2	101	0	51
2	123	0	56
2	477	0	109
2	495	0	109
2	705	0	110
2	739	0	110
2	935	0	120
2	1058	0	120
2	1072	0	120
2	1710	0	124
2	1738	0	124
2	1802	0	127
2	2778	0	135
2	3108	0	135
2	3332	0	135
2	3348	0	135
2	3560	0	135
2	3724	0	135
2	3736	0	135
2	3832	0	135
2	4036	0	135
2	4408	0	137
2	4604	0	137
2	4792	0	137
2	5608	0	140
2	5648	0	140
2	5720	0	140
2	5808	0	140
2	6108	0	141
2	6128	0	141
2	7064	0	141
2	7168	0	141
2	7624	0	141
2	7736	0	141
2	8248	0	141
2	8336	0	141
2	8808	0	141
2	9896	0	142
2	10104	0	142
3	4	0	4
3	94	0	51
3	102	0	51
3	137	0	61
3	268	0	88
3	275	0	89
3	398	0	104
3	431	0	109
3	442	0	109
3	706	0	110
3	712	0	110
3	735	0	110
3	823	0	119
3	836	0	119
3	936	0	120
3	1054	0	120
3	1078	0	120
3	1424	0	124
3	1876	0	127
3	2114	0	129
3	2282	0	130
3	2432	0	133
3	3192	0	135
3	3264	0	135
3	3480	0	135
3	3820	0	135
3	4072	0	135
3	5224	0	140
3	5620	0	140
3	5864	0	140
3	6284	0	141
3	6644	0	141
3	6656	0	141
3	7224	0	141
3	7784	0	141
3	9416	0	142
3	10008	0	142
3	11768	0	142
3	12000	0	142
4	5	0	5
4	24	0	18
4	31	0	22
4	87	0	49
4	280	0	89
4	302	0	90
4	331	0	96
4	338	0	96
4	441	0	109
4	508	0	109
4	554	0	110
4	563	0	110
4	599	0	110
4	623	0	110
4	710	0	110
4	717	0	110
4	956	0	120
4	1138	0	120
4	1204	0	120
4	1222	0	120
4	1578	0	124
4	1708	0	124
4	2210	0	130
4	2288	0	130
4	2438	0	133
4	2946	0	135
4	3268	0	135
4	3280	0	135
4	3356	0	135
4	3392	0	135
4	3532	0	135
4	5228	0	140
4	5740	0	140
4	6020	0	141
4	6148	0	141
4	6664	0	141
4	6976	0	141
4	7024	0	141
4	7232	0	141
4	7824	0	141
4	7920	0	141
4	8320	0	141
4	9120	0	142
4	9296	0	142
4	9520	0	142
4	10928	0	142
4	12008	0	142
4	12040	0	142
5	6	0	6
5	48	0	35
5	97	0	51
5	104	0	51
5	206	0	82
5	224	0	83
5	306	0	90
5	328	0	96
5	349	0	96
5	433	0	109
5	438	0	109
5	457	0	109
5	620	0	110
5	644	0	110
5	798	0	119
5	817	0	119
5	983	0	120
5	993	0	120
5	1082	0	120
5	1088	0	120
5	1460	0	124
5	1644	0	124
5	2134	0	129
5	2238	0	130
5	2306	0	130
5	2700	0	135
5	2780	0	135
5	2824	0	135
5	3148	0	135
5	3220	0	135
5	3572	0	135
5	3640	0	135
5	4224	0	137
5	4500	0	137
5	4536	0	137
5	4704	0	137
5	4716	0	137
5	4824	0	137
5	4840	0	138
5	5208	0	140
5	5348	0	140
5	5736	0	140
5	5996	0	141
5	6092	0	141
5	6112	0	141
5	6272	0	141
5	6288	0	141
5	6300	0	141
5	6760	0	141
5	7544	0	141
5	7856	0	141
5	8288	0	141
5	8520	0	141
5	9160	0	142
5	9752	0	142
5	9920	0	142
5	10024	0	142
6	7	0	7
6	229	0	83
6	279	0	89
6	538	0	110
6	670	0	110
6	814	0	119
6	938	0	120
6	1046	0	120
6	1358	0	124
6	1878	0	127
6	2026	0	129
6	2294	0	130
6	2810	0	135
6	2830	0	135
6	2958	0	135
6	2976	0	135
6	3728	0	135
6	3776	0	135
6	4064	0	135
6	4692	0	137
6	5160	0	140
6	5260	0	140
6	5316	0	140
6	5396	0	140
6	5920	0	140
6	6200	0	141
6	7496	0	141
6	7840	0	141
6	7888	0	141
6	10176	0	142
6	10208	0	142
6	10488	0	142
6	10936	0	142
6	12072	0	142
7	8	0	8
7	20	0	16
7	209	0	82
7	468	0	109
7	475	0	109
7	503	0	109
7	610	0	110
7	672	0	110
7	677	0	110
7	682	0	110
7	761	0	111
7	765	0	111
7	946	0	120
7	1006	0	120
7	1010	0	120
7	1090	0	120
7	1150	0	120
7	1160	0	120
7	1166	0	120
7	1276	0	122
7	1434	0	124
7	1454	0	124
7	1476	0	124
7	1598	0	124
7	1766	0	124
7	1790	0	126
7	1934	0	129
7	1942	0	129
7	2040	0	129
7	2086	0	129
7	2324	0	130
7	2900	0	135
7	2932	0	135
7	3016	0	135
7	3308	0	135
7	3372	0	135
7	3460	0	135
7	4040	0	135
7	4244	0	137
7	4376	0	137
7	4528	0	137
7	4992	0	140
7	5212	0	140
7	5388	0	140
7	5508	0	140
7	5724	0	140
7	7208	0	141
7	7696	0	141
7	7976	0	141
7	11600	0	142
7	11648	0	142
8	9	0	9
8	16	0	14
8	90	0	49
8	116	0	56
8	250	0	85
8	307	0	90
8	489	0	109
8	556	0	110
8	584	0	110
8	608	0	110
8	615	0	110
8	650	0	110
8	752	0	111
8	821	0	119
8	985	0	120
8	1074	0	120
8	1092	0	120
8	1104	0	120
8	1264	0	122
8	1370	0	124
8	1656	0	124
8	1664	0	124
8	1856	0	127
8	2030	0	129
8	2252	0	130
8	2710	0	135
8	3312	0	135
8	3336	0	135
8	3352	0	135
8	3540	0	135
8	4572	0	137
8	4672	0	137
8	4852	0	139
8	5680	0	140
8	6016	0	141
8	6692	0	141
8	6776	0	141
8	6980	0	141
8	7800	0	141
8	7848	0	141
8	8136	0	141
8	9048	0	142
8	9744	0	142
8	10312	0	142
8	11336	0	142
8	11712	0	142
9	10	0	10
9	61	0	40
9	98	0	51
9	236	0	85
9	480	0	109
9	532	0	110
9	569	0	110
9	637	0	110
9	815	0	119
9	820	0	119
9	1060	0	120
9	1236	0	120
9	1244	0	120
9	1450	0	124
9	1472	0	124
9	1648	0	124
9	1654	0	124
9	1676	0	124
9	2012	0	129
9	2018	0	129
9	2036	0	129
9	2164	0	129
9	2232	0	130
9	2764	0	135
9	3044	0	135
9	3296	0	135
9	3416	0	135
9	3448	0	135
9	3904	0	135
9	4180	0	137
9	4400	0	137
9	4832	0	137
9	4948	0	140
9	5188	0	140
9	5376	0	140
9	5400	0	140
9	5704	0	140
9	6036	0	141
9	6104	0	141
9	6276	0	141
9	6336	0	141
9	6352	0	141
9	6412	0	141
9	8000	0	141
9	9064	0	142
9	9824	0	142
9	10192	0	142
9	10264	0	142
9	11392	0	142
9	11856	0	142
9	12168	0	142
10	11	0	11
10	19	0	16
10	56	0	39
10	83	0	49
10	352	0	96
10	445	0	109
10	485	0	109
10	555	0	110
10	558	0	110
10	562	0	110
10	594	0	110
10	625	0	110
10	642	0	110
10	678	0	110
10	707	0	110
10	764	0	111
10	1070	0	120
10	1272	0	122
10	1418	0	124
10	1448	0	124
10	1690	0	124
10	2010	0	129
10	2060	0	129
10	2122	0	129
10	2130	0	129
10	2242	0	130
10	2342	0	131
10	2418	0	133
10	2766	0	135
10	2812	0	135
10	2828	0	135
10	2844	0	135
10	2848	0	135
10	3188	0	135
10	3256	0	135
10	3696	0	135
10	3764	0	135
10	3800	0	135
10	3824	0	135
10	4012	0	135
10	4444	0	137
10	4452	0	137
10	4676	0	137
10	4836	0	138
10	5308	0	140
10	5968	0	140
10	6096	0	141
10	7792	0	141
10	9368	0	142
10	9808	0	142
10	11024	0	142
10	11344	0	142
11	12	0	12
11	63	0	41
11	131	0	59
11	256	0	87
11	283	0	89
11	453	0	109
11	479	0	109
11	700	0	110
11	711	0	110
11	728	0	110
11	742	0	110
11	833	0	119
11	926	0	120
11	945	0	120
11	951	0	120
11	978	0	120
11	998	0	120
11	1012	0	120
11	1080	0	120
11	1114	0	120
11	1126	0	120
11	1188	0	120
11	1216	0	120
11	1396	0	124
11	1430	0	124
11	1470	0	124
11	1576	0	124
11	1986	0	129
11	2236	0	130
11	2338	0	130
11	2428	0	133
11	2886	0	135
11	2892	0	135
11	3564	0	135
11	3580	0	135
11	4016	0	135
11	4076	0	135
11	4156	0	137
11	4280	0	137
11	4396	0	137
11	4612	0	137
11	4636	0	137
11	5600	0	140
11	5836	0	140
11	7000	0	141
11	7808	0	141
11	7912	0	141
11	8328	0	141
11	8392	0	141
11	8416	0	141
11	9952	0	142
11	10000	0	142
11	10496	0	142
11	11008	0	142
12	14	0	13
12	80	0	49
12	151	0	66
12	298	0	90
12	314	0	90
12	440	0	109
12	447	0	109
12	509	0	109
12	526	0	110
12	606	0	110
12	635	0	110
12	638	0	110
12	649	0	110
12	691	0	110
12	754	0	111
12	801	0	119
12	948	0	120
12	2208	0	130
12	2296	0	130
12	2328	0	130
12	2696	0	135
12	2840	0	135
12	3176	0	135
12	3768	0	135
12	3816	0	135
12	5076	0	140
12	6060	0	141
12	6696	0	141
12	7480	0	141
12	7584	0	141
12	8784	0	141
12	9256	0	142
12	9576	0	142
12	9632	0	142
12	10272	0	142
12	10416	0	142
12	11064	0	142
12	11632	0	142
12	11696	0	142
12	11728	0	142
12	11992	0	142
12	12016	0	142
13	15	0	14
13	22	0	17
13	292	0	90
13	416	0	108
13	529	0	110
13	652	0	110
13	655	0	110
13	727	0	110
13	757	0	111
13	803	0	119
13	841	0	119
13	974	0	120
13	1174	0	120
13	1196	0	120
13	1232	0	120
13	1416	0	124
13	1436	0	124
13	1502	0	124
13	1938	0	129
13	2032	0	129
13	2094	0	129
13	2314	0	130
13	2842	0	135
13	2930	0	135
13	3240	0	135
13	3380	0	135
13	3704	0	135
13	3804	0	135
13	4164	0	137
13	4492	0	137
13	4640	0	137
13	5180	0	140
13	5528	0	140
13	5824	0	140
13	5928	0	140
13	5964	0	140
13	6672	0	141
13	7080	0	141
13	10352	0	142
13	10376	0	142
13	10952	0	142
13	11576	0	142
14	17	0	15
14	54	0	39
14	109	0	53
14	254	0	86
14	299	0	90
14	339	0	96
14	379	0	100
14	493	0	109
14	540	0	110
14	664	0	110
14	697	0	110
14	743	0	110
14	822	0	119
14	952	0	120
14	1124	0	120
14	1158	0	120
14	1428	0	124
14	1768	0	124
14	2062	0	129
14	2202	0	130
14	2260	0	130
14	2308	0	130
14	2412	0	133
14	2874	0	135
14	2994	0	135
14	3100	0	135
14	3700	0	135
14	3772	0	135
14	4484	0	137
14	4928	0	140
14	5080	0	140
14	5152	0	140
14	5572	0	140
14	6024	0	141
14	6044	0	141
14	6640	0	141
14	6648	0	141
14	6676	0	141
14	7504	0	141
14	7552	0	141
14	8120	0	141
14	9016	0	142
14	9176	0	142
14	9376	0	142
14	9496	0	142
14	9544	0	142
14	9856	0	142
14	11928	0	142
15	18	0	16
15	44	0	33
15	55	0	39
15	84	0	49
15	139	0	62
15	227	0	83
15	265	0	87
15	285	0	89
15	370	0	98
15	498	0	109
15	543	0	110
15	545	0	110
15	565	0	110
15	588	0	110
15	596	0	110
15	763	0	111
15	796	0	119
15	1002	0	120
15	1206	0	120
15	1468	0	124
15	1604	0	124
15	1670	0	124
15	1742	0	124
15	1770	0	124
15	1788	0	125
15	1846	0	127
15	2126	0	129
15	2132	0	129
15	2922	0	135
15	2968	0	135
15	3120	0	135
15	3344	0	135
15	3672	0	135
15	3788	0	135
15	5124	0	140
15	5300	0	140
15	5916	0	140
15	6252	0	141
15	6716	0	141
15	6988	0	141
15	8080	0	141
15	8800	0	141
15	8848	0	141
15	9320	0	142
15	9648	0	142
15	11456	0	142
15	11920	0	142
16	21	0	17
16	81	0	49
16	110	0	53
16	222	0	83
16	239	0	85
16	248	0	85
16	344	0	96
16	368	0	98
16	384	0	100
16	439	0	109
16	542	0	110
16	595	0	110
16	641	0	110
16	683	0	110
16	716	0	110
16	749	0	111
16	834	0	119
16	937	0	120
16	1168	0	120
16	1456	0	124
16	1496	0	124
16	1588	0	124
16	2264	0	130
16	2344	0	131
16	2768	0	135
16	2782	0	135
16	2790	0	135
16	2822	0	135
16	2948	0	135
16	3244	0	135
16	3368	0	135
16	3756	0	135
16	3828	0	135
16	4256	0	137
16	4384	0	137
16	4568	0	137
16	4784	0	137
16	5216	0	140
16	5628	0	140
16	6580	0	141
16	6700	0	141
16	7400	0	141
16	8608	0	141
16	9264	0	142
16	10016	0	142
16	10280	0	142
17	23	0	18
17	246	0	85
17	249	0	85
17	267	0	88
17	290	0	90
17	332	0	96
17	346	0	96
17	494	0	109
17	605	0	110
17	609	0	110
17	618	0	110
17	661	0	110
17	690	0	110
17	816	0	119
17	929	0	120
17	1234	0	120
17	1268	0	122
17	1280	0	122
17	1398	0	124
17	1514	0	124
17	1564	0	124
17	1666	0	124
17	1764	0	124
17	2058	0	129
17	2280	0	130
17	2316	0	130
17	2568	0	134
17	2878	0	135
17	2912	0	135
17	3068	0	135
17	3468	0	135
17	3476	0	135
17	3856	0	135
17	4144	0	137
17	4168	0	137
17	4392	0	137
17	4700	0	137
17	5544	0	140
17	5924	0	140
17	5980	0	140
17	6056	0	141
17	6136	0	141
17	6152	0	141
17	6224	0	141
17	6364	0	141
17	7304	0	141
17	7880	0	141
17	8024	0	141
17	8056	0	141
17	8352	0	141
17	8528	0	141
17	9504	0	142
17	9784	0	142
17	9800	0	142
17	10240	0	142
17	10344	0	142
17	11976	0	142
17	12056	0	142
18	25	0	19
18	29	0	21
18	121	0	56
18	335	0	96
18	342	0	96
18	434	0	109
18	835	0	119
18	1432	0	124
18	1624	0	124
18	1628	0	124
18	1642	0	124
18	1796	0	127
18	2200	0	130
18	2248	0	130
18	2772	0	135
18	2806	0	135
18	2998	0	135
18	3152	0	135
18	3208	0	135
18	4140	0	136
18	5172	0	140
18	5276	0	140
18	5296	0	140
18	5796	0	140
18	5848	0	140
18	6204	0	141
18	6708	0	141
18	6756	0	141
18	7192	0	141
18	7816	0	141
18	8664	0	141
18	9872	0	142
18	11720	0	142
18	11840	0	142
19	27	0	20
19	86	0	49
19	119	0	56
19	282	0	89
19	340	0	96
19	486	0	109
19	527	0	110
19	592	0	110
19	613	0	110
19	724	0	110
19	804	0	119
19	827	0	119
19	942	0	120
19	1076	0	120
19	1400	0	124
19	1474	0	124
19	1696	0	124
19	2022	0	129
19	2136	0	129
19	2442	0	133
19	2792	0	135
19	2960	0	135
19	2974	0	135
19	2990	0	135
19	3288	0	135
19	3860	0	135
19	3980	0	135
19	4216	0	137
19	4768	0	137
19	5168	0	140
19	5328	0	140
19	5372	0	140
19	5652	0	140
19	5812	0	140
19	6196	0	141
19	6572	0	141
19	7072	0	141
19	7472	0	141
19	8840	0	141
19	10880	0	142
19	11464	0	142
20	28	0	21
20	103	0	51
20	276	0	89
20	288	0	90
20	336	0	96
20	386	0	100
20	393	0	104
20	401	0	104
20	551	0	110
20	1462	0	124
20	1466	0	124
20	1544	0	124
20	1830	0	127
20	1840	0	127
20	1880	0	127
20	2176	0	129
20	3492	0	135
20	3612	0	135
20	4508	0	137
20	5220	0	140
20	5264	0	140
20	5292	0	140
20	5624	0	140
20	6064	0	141
20	6144	0	141
20	6416	0	141
20	6636	0	141
20	8016	0	141
20	10328	0	142
20	10584	0	142
20	10624	0	142
20	10904	0	142
20	11496	0	142
20	11848	0	142
20	12160	0	142
21	30	0	22
21	85	0	49
21	149	0	66
21	501	0	109
21	740	0	110
21	753	0	111
21	1014	0	120
21	1020	0	120
21	1062	0	120
21	1362	0	124
21	1512	0	124
21	1704	0	124
21	1860	0	127
21	2042	0	129
21	2170	0	129
21	2226	0	130
21	2346	0	131
21	2846	0	135
21	2966	0	135
21	3124	0	135
21	3340	0	135
21	3692	0	135
21	3708	0	135
21	3932	0	135
21	4136	0	135
21	4460	0	137
21	4628	0	137
21	4808	0	137
21	5416	0	140
21	6500	0	141
21	6616	0	141
21	6724	0	141
21	7032	0	141
21	7176	0	141
21	7640	0	141
21	8856	0	141
21	9272	0	142
21	10144	0	142
21	11704	0	142
22	32	0	23
22	118	0	56
22	293	0	90
22	337	0	96
22	395	0	104
22	531	0	110
22	574	0	110
22	627	0	110
22	629	0	110
22	708	0	110
22	1044	0	120
22	1132	0	120
22	1242	0	120
22	1498	0	124
22	1550	0	124
22	1554	0	124
22	1700	0	124
22	1850	0	127
22	1858	0	127
22	2020	0	129
22	2110	0	129
22	2266	0	130
22	3592	0	135
22	4416	0	137
22	4684	0	137
22	4732	0	137
22	5176	0	140
22	5244	0	140
22	6120	0	141
22	6308	0	141
22	8296	0	141
22	8976	0	141
22	9128	0	142
22	9976	0	142
22	10160	0	142
22	10232	0	142
22	10336	0	142
22	10456	0	142
23	33	0	24
23	57	0	39
23	67	0	44
23	130	0	59
23	136	0	61
23	148	0	66
23	216	0	82
23	231	0	83
23	269	0	88
23	357	0	96
23	560	0	110
23	600	0	110
23	603	0	110
23	824	0	119
23	826	0	119
23	891	0	119
23	990	0	120
23	1364	0	124
23	1368	0	124
23	1372	0	124
23	1526	0	124
23	1734	0	124
23	1748	0	124
23	1808	0	127
23	2002	0	129
23	2154	0	129
23	2230	0	130
23	3012	0	135
23	3116	0	135
23	3216	0	135
23	3388	0	135
23	4424	0	137
23	4736	0	137
23	4804	0	137
23	5404	0	140
23	5552	0	140
23	6232	0	141
23	6320	0	141
23	6408	0	141
23	7056	0	141
23	7240	0	141
23	7528	0	141
23	7872	0	141
23	7960	0	141
23	8168	0	141
23	8576	0	141
23	9080	0	142
23	9248	0	142
23	10048	0	142
23	10096	0	142
23	11784	0	142
24	34	0	25
24	42	0	32
24	68	0	44
24	105	0	51
24	163	0	70
24	351	0	96
24	365	0	98
24	470	0	109
24	473	0	109
24	721	0	110
24	839	0	119
24	843	0	119
24	896	0	119
24	988	0	120
24	999	0	120
24	1052	0	120
24	1384	0	124
24	1530	0	124
24	1730	0	124
24	1754	0	124
24	2222	0	130
24	2826	0	135
24	2890	0	135
24	3328	0	135
24	3848	0	135
24	4080	0	135
24	4472	0	137
24	5616	0	140
24	6008	0	141
24	6912	0	141
24	7104	0	141
24	7264	0	141
24	8152	0	141
24	8640	0	141
24	8744	0	141
24	9112	0	142
24	11448	0	142
25	35	0	26
25	169	0	71
25	257	0	87
25	270	0	88
25	895	0	119
25	919	0	120
25	1374	0	124
25	1582	0	124
25	1616	0	124
25	2048	0	129
25	3712	0	135
25	3928	0	135
25	4584	0	137
25	6172	0	141
25	7248	0	141
25	7744	0	141
25	8464	0	141
25	11048	0	142
25	11888	0	142
25	11904	0	142
26	36	0	27
26	127	0	58
26	135	0	61
26	143	0	63
26	167	0	71
26	261	0	87
26	355	0	96
26	719	0	110
26	885	0	119
26	892	0	119
26	1574	0	124
26	1804	0	127
26	2046	0	129
26	2888	0	135
26	3112	0	135
26	4284	0	137
26	4608	0	137
26	5024	0	140
26	5056	0	140
26	5640	0	140
26	6740	0	141
26	6936	0	141
26	6952	0	141
26	7144	0	141
26	9104	0	142
26	9944	0	142
26	10056	0	142
26	11360	0	142
27	37	0	28
27	59	0	40
27	158	0	70
27	220	0	82
27	226	0	83
27	300	0	90
27	586	0	110
27	646	0	110
27	713	0	110
27	813	0	119
27	831	0	119
27	844	0	119
27	986	0	120
27	995	0	120
27	1238	0	120
27	1360	0	124
27	1402	0	124
27	1668	0	124
27	1864	0	127
27	2980	0	135
27	3552	0	135
27	3680	0	135
27	3796	0	135
27	4208	0	137
27	4760	0	137
27	4936	0	140
27	5044	0	140
27	5072	0	140
27	5236	0	140
27	5248	0	140
27	5312	0	140
27	5340	0	140
27	5676	0	140
27	6124	0	141
27	6404	0	141
27	6620	0	141
27	7416	0	141
27	7488	0	141
27	7712	0	141
27	8200	0	141
27	8632	0	141
27	9512	0	142
27	11032	0	142
28	38	0	29
28	79	0	49
28	113	0	54
28	230	0	83
28	350	0	96
28	548	0	110
28	604	0	110
28	698	0	110
28	722	0	110
28	905	0	119
28	1048	0	120
28	1562	0	124
28	2156	0	129
28	3196	0	135
28	3472	0	135
28	3536	0	135
28	3676	0	135
28	3964	0	135
28	4596	0	137
28	4724	0	137
28	4800	0	137
28	5144	0	140
28	6012	0	141
28	6216	0	141
28	8008	0	141
28	8112	0	141
28	8264	0	141
28	8544	0	141
28	8600	0	141
28	8968	0	141
28	10864	0	142
28	11000	0	142
28	11488	0	142
28	11944	0	142
29	39	0	30
29	71	0	46
29	73	0	47
29	264	0	87
29	305	0	90
29	465	0	109
29	730	0	110
29	732	0	110
29	736	0	110
29	899	0	119
29	933	0	120
29	966	0	120
29	981	0	120
29	1056	0	120
29	1142	0	120
29	1220	0	120
29	1492	0	124
29	1552	0	124
29	1702	0	124
29	1720	0	124
29	1778	0	124
29	1800	0	127
29	2054	0	129
29	2166	0	129
29	2212	0	130
29	2250	0	130
29	2716	0	135
29	2784	0	135
29	2818	0	135
29	3200	0	135
29	3716	0	135
29	3740	0	135
29	3908	0	135
29	4412	0	137
29	4420	0	137
29	4728	0	137
29	5052	0	140
29	5240	0	140
29	6000	0	141
29	6184	0	141
29	6380	0	141
29	6752	0	141
29	6948	0	141
29	6992	0	141
29	7040	0	141
29	7200	0	141
29	7688	0	141
29	7720	0	141
29	8480	0	141
29	8720	0	141
29	9816	0	142
29	9984	0	142
29	10072	0	142
30	40	0	31
30	45	0	33
30	49	0	35
30	207	0	82
30	214	0	82
30	247	0	85
30	458	0	109
30	496	0	109
30	552	0	110
30	568	0	110
30	572	0	110
30	575	0	110
30	581	0	110
30	626	0	110
30	733	0	110
30	947	0	120
30	959	0	120
30	968	0	120
30	1112	0	120
30	1118	0	120
30	1386	0	124
30	1458	0	124
30	1692	0	124
30	1822	0	127
30	2336	0	130
30	2776	0	135
30	2910	0	135
30	2916	0	135
30	2972	0	135
30	2978	0	135
30	3032	0	135
30	4368	0	137
30	4432	0	137
30	5120	0	140
30	5696	0	140
30	6344	0	141
30	8376	0	141
30	8752	0	141
30	9400	0	142
30	10296	0	142
30	10432	0	142
30	11744	0	142
31	41	0	32
31	308	0	90
31	403	0	105
31	420	0	108
31	423	0	108
31	459	0	109
31	583	0	110
31	636	0	110
31	643	0	110
31	687	0	110
31	818	0	119
31	2084	0	129
31	2292	0	130
31	2800	0	135
31	3156	0	135
31	3316	0	135
31	5332	0	140
31	5540	0	140
31	5888	0	140
31	6340	0	141
31	6396	0	141
31	6652	0	141
31	7280	0	141
31	7864	0	141
31	9656	0	142
31	9768	0	142
31	9792	0	142
31	11408	0	142
32	43	0	33
32	99	0	51
32	122	0	56
32	141	0	63
32	164	0	70
32	263	0	87
32	367	0	98
32	461	0	109
32	557	0	110
32	601	0	110
32	648	0	110
32	830	0	119
32	908	0	119
32	930	0	120
32	961	0	120
32	1452	0	124
32	1516	0	124
32	1714	0	124
32	1862	0	127
32	2066	0	129
32	2124	0	129
32	2286	0	130
32	2436	0	133
32	2770	0	135
32	2920	0	135
32	2952	0	135
32	3056	0	135
32	3260	0	135
32	3684	0	135
32	3784	0	135
32	4588	0	137
32	5068	0	140
32	5204	0	140
32	5280	0	140
32	5344	0	140
32	5900	0	140
32	6156	0	141
32	6280	0	141
32	6368	0	141
32	6584	0	141
32	6780	0	141
32	7440	0	141
32	8304	0	141
32	8616	0	141
32	9424	0	142
32	11880	0	142
33	46	0	34
33	160	0	70
33	553	0	110
33	1820	0	127
33	3276	0	135
33	4236	0	137
33	4428	0	137
33	4740	0	137
33	4748	0	137
33	6376	0	141
34	47	0	35
34	60	0	40
34	211	0	82
34	303	0	90
34	452	0	109
34	466	0	109
34	483	0	109
34	738	0	110
34	805	0	119
34	825	0	119
34	906	0	119
34	932	0	120
34	1202	0	120
34	1218	0	120
34	1532	0	124
34	1612	0	124
34	2104	0	129
34	2340	0	131
34	2430	0	133
34	2944	0	135
34	3048	0	135
34	3128	0	135
34	3272	0	135
34	3324	0	135
34	3440	0	135
34	3464	0	135
34	3960	0	135
34	4056	0	135
34	4240	0	137
34	4520	0	137
34	4592	0	137
34	4752	0	137
34	5576	0	140
34	5672	0	140
34	5904	0	140
34	6244	0	141
34	6372	0	141
34	6588	0	141
34	7296	0	141
34	9552	0	142
34	11368	0	142
35	50	0	36
35	205	0	82
35	210	0	82
35	327	0	96
35	417	0	108
35	419	0	108
35	444	0	109
35	454	0	109
35	460	0	109
35	703	0	110
35	747	0	111
35	750	0	111
35	808	0	119
35	944	0	120
35	958	0	120
35	982	0	120
35	1200	0	120
35	1210	0	120
35	1538	0	124
35	1560	0	124
35	1586	0	124
35	1706	0	124
35	1736	0	124
35	2284	0	130
35	2298	0	130
35	2304	0	130
35	2698	0	135
35	2820	0	135
35	2918	0	135
35	2938	0	135
35	3008	0	135
35	3140	0	135
35	3404	0	135
35	4264	0	137
35	4496	0	137
35	5000	0	140
35	5008	0	140
35	5304	0	140
35	5336	0	140
35	5708	0	140
35	5816	0	140
35	5860	0	140
35	6720	0	141
35	7216	0	141
35	9592	0	142
35	9776	0	142
35	9992	0	142
35	10080	0	142
35	10112	0	142
35	11472	0	142
35	11560	0	142
36	51	0	37
36	244	0	85
36	487	0	109
36	533	0	110
36	628	0	110
36	673	0	110
36	748	0	111
36	940	0	120
36	1102	0	120
36	1180	0	120
36	1408	0	124
36	2566	0	134
36	2712	0	135
36	2904	0	135
36	3808	0	135
36	5380	0	140
36	5512	0	140
36	5524	0	140
36	5976	0	140
36	6568	0	141
36	7992	0	141
36	8880	0	141
36	8912	0	141
36	9056	0	142
36	9568	0	142
36	10360	0	142
36	10384	0	142
36	10968	0	142
37	52	0	38
37	534	0	110
37	674	0	110
37	694	0	110
37	972	0	120
37	2098	0	129
37	4192	0	137
37	5516	0	140
37	6524	0	141
37	6532	0	141
37	12216	0	142
38	53	0	39
38	156	0	69
38	245	0	85
38	312	0	90
38	528	0	110
38	692	0	110
38	696	0	110
38	811	0	119
38	941	0	120
38	971	0	120
38	1038	0	120
38	1098	0	120
38	1156	0	120
38	1792	0	127
38	2140	0	129
38	2276	0	130
38	2762	0	135
38	3660	0	135
38	4184	0	137
38	4772	0	137
38	4980	0	140
38	5568	0	140
38	7312	0	141
38	9144	0	142
38	9488	0	142
38	9832	0	142
38	10960	0	142
38	11656	0	142
38	12224	0	142
39	58	0	40
39	106	0	51
39	159	0	70
39	467	0	109
39	474	0	109
39	506	0	109
39	546	0	110
39	561	0	110
39	1108	0	120
39	1270	0	122
39	1602	0	124
39	1632	0	124
39	1678	0	124
39	1732	0	124
39	1756	0	124
39	1812	0	127
39	1818	0	127
39	1868	0	127
39	2008	0	129
39	2038	0	129
39	2434	0	133
39	2704	0	135
39	3636	0	135
39	4068	0	135
39	4372	0	137
39	4932	0	140
39	5284	0	140
39	5320	0	140
39	5728	0	140
39	5800	0	140
39	6048	0	141
39	6116	0	141
39	6324	0	141
39	6764	0	141
39	7904	0	141
39	8760	0	141
39	8792	0	141
39	9240	0	142
39	9904	0	142
39	9968	0	142
39	10992	0	142
39	11752	0	142
39	11960	0	142
39	12064	0	142
40	62	0	41
40	82	0	49
40	89	0	49
40	228	0	83
40	242	0	85
40	301	0	90
40	382	0	100
40	397	0	104
40	499	0	109
40	507	0	109
40	760	0	111
40	832	0	119
40	967	0	120
40	1042	0	120
40	1186	0	120
40	1826	0	127
40	2112	0	129
40	3184	0	135
40	3376	0	135
40	4404	0	137
40	4632	0	137
40	4720	0	137
40	4828	0	137
40	5108	0	140
40	5132	0	140
40	5196	0	140
40	5352	0	140
40	5660	0	140
40	5992	0	141
40	6400	0	141
40	7184	0	141
40	7928	0	141
40	9032	0	142
40	9232	0	142
40	9408	0	142
40	11544	0	142
41	64	0	42
41	74	0	47
41	96	0	51
41	117	0	56
41	212	0	82
41	215	0	82
41	287	0	90
41	334	0	96
41	481	0	109
41	497	0	109
41	570	0	110
41	582	0	110
41	658	0	110
41	679	0	110
41	688	0	110
41	799	0	119
41	1214	0	120
41	1596	0	124
41	1744	0	124
41	1772	0	124
41	1776	0	124
41	2206	0	130
41	2722	0	135
41	2940	0	135
41	3104	0	135
41	3428	0	135
41	3604	0	135
41	3920	0	135
41	4220	0	137
41	4276	0	137
41	4476	0	137
41	4820	0	137
41	6208	0	141
41	6384	0	141
41	6496	0	141
41	7096	0	141
41	7160	0	141
41	7272	0	141
41	7944	0	141
41	8160	0	141
41	9528	0	142
41	9584	0	142
41	9672	0	142
41	10472	0	142
41	11624	0	142
42	65	0	43
42	75	0	47
42	91	0	49
42	311	0	90
42	324	0	96
42	371	0	98
42	374	0	99
42	378	0	100
42	500	0	109
42	651	0	110
42	759	0	111
42	1182	0	120
42	1208	0	120
42	1266	0	122
42	1274	0	122
42	1444	0	124
42	1548	0	124
42	1660	0	124
42	1948	0	129
42	1984	0	129
42	2244	0	130
42	2278	0	130
42	2310	0	130
42	2708	0	135
42	2754	0	135
42	3544	0	135
42	3584	0	135
42	3628	0	135
42	3876	0	135
42	4644	0	137
42	5104	0	140
42	5112	0	140
42	5532	0	140
42	5856	0	140
42	5936	0	140
42	6260	0	141
42	6516	0	141
42	7336	0	141
42	8872	0	141
42	8992	0	142
42	9008	0	142
42	9680	0	142
42	9848	0	142
42	10224	0	142
42	10368	0	142
43	66	0	44
43	150	0	66
43	203	0	82
43	219	0	82
43	233	0	84
43	380	0	100
43	589	0	110
43	624	0	110
43	829	0	119
43	980	0	120
43	996	0	120
43	1128	0	120
43	1480	0	124
43	1638	0	124
43	1650	0	124
43	1686	0	124
43	1716	0	124
43	1740	0	124
43	1780	0	124
43	2162	0	129
43	2322	0	130
43	2334	0	130
43	2752	0	135
43	2906	0	135
43	2964	0	135
43	3084	0	135
43	3096	0	135
43	3172	0	135
43	3364	0	135
43	3384	0	135
43	3412	0	135
43	3864	0	135
43	3976	0	135
43	4252	0	137
43	4260	0	137
43	4652	0	137
43	4664	0	137
43	4812	0	137
43	4944	0	140
43	5536	0	140
43	5768	0	140
43	6028	0	141
43	6712	0	141
43	7936	0	141
43	8240	0	141
43	8712	0	141
43	8896	0	141
43	9072	0	142
43	10480	0	142
43	10984	0	142
44	69	0	45
44	100	0	51
44	162	0	70
44	271	0	88
44	399	0	104
44	437	0	109
44	699	0	110
44	837	0	119
44	898	0	119
44	904	0	119
44	960	0	120
44	1064	0	120
44	1380	0	124
44	1490	0	124
44	1520	0	124
44	1524	0	124
44	2228	0	130
44	2720	0	135
44	3060	0	135
44	3132	0	135
44	3164	0	135
44	3568	0	135
44	4120	0	135
44	4132	0	135
44	4228	0	137
44	4364	0	137
44	4448	0	137
44	4796	0	137
44	5804	0	140
44	6160	0	141
44	6212	0	141
44	6940	0	141
44	7136	0	141
44	7288	0	141
44	8440	0	141
44	8512	0	141
44	8824	0	141
44	9088	0	142
44	9936	0	142
44	10032	0	142
44	11016	0	142
44	11832	0	142
45	70	0	46
45	129	0	59
45	166	0	71
45	462	0	109
45	559	0	110
45	718	0	110
45	737	0	110
45	887	0	119
45	890	0	119
45	915	0	120
45	1568	0	124
45	1752	0	124
45	2000	0	129
45	2216	0	130
45	3252	0	135
45	4360	0	137
45	4456	0	137
45	4624	0	137
45	5040	0	140
45	5064	0	140
45	5744	0	140
45	5776	0	140
45	5792	0	140
45	6236	0	141
45	6248	0	141
45	6972	0	141
45	6996	0	141
45	7536	0	141
45	8192	0	141
45	8456	0	141
45	9288	0	142
45	11352	0	142
46	72	0	47
46	125	0	57
46	259	0	87
46	888	0	119
46	903	0	119
46	931	0	120
46	1806	0	127
46	2106	0	129
46	3952	0	135
46	4296	0	137
46	6004	0	141
46	6168	0	141
46	6240	0	141
46	6916	0	141
46	6960	0	141
46	7432	0	141
46	8408	0	141
46	11800	0	142
47	76	0	48
47	112	0	54
47	313	0	90
47	383	0	100
47	421	0	108
47	430	0	109
47	547	0	110
47	656	0	110
47	666	0	110
47	970	0	120
47	1154	0	120
47	1508	0	124
47	1852	0	127
47	1932	0	129
47	1962	0	129
47	2016	0	129
47	2274	0	130
47	2350	0	131
47	2410	0	133
47	2506	0	133
47	2694	0	135
47	2728	0	135
47	2896	0	135
47	3036	0	135
47	3228	0	135
47	3648	0	135
47	4388	0	137
47	4532	0	137
47	4952	0	140
47	4996	0	140
47	5364	0	140
47	5820	0	140
47	5868	0	140
47	6256	0	141
47	6392	0	141
47	6688	0	141
47	6900	0	141
47	8560	0	141
47	10120	0	142
47	10216	0	142
47	10448	0	142
47	11968	0	142
48	77	0	49
48	394	0	104
48	446	0	109
48	631	0	110
48	685	0	110
48	819	0	119
48	828	0	119
48	1000	0	120
48	1590	0	124
48	1844	0	127
48	2028	0	129
48	2116	0	129
48	2158	0	129
48	2300	0	130
48	2320	0	130
48	2832	0	135
48	2838	0	135
48	3064	0	135
48	3088	0	135
48	3136	0	135
48	3168	0	135
48	3420	0	135
48	4032	0	135
48	5872	0	140
48	6304	0	141
48	6560	0	141
48	8280	0	141
48	11416	0	142
48	11432	0	142
48	11984	0	142
49	92	0	50
49	202	0	82
49	235	0	85
49	376	0	100
49	513	0	109
49	653	0	110
49	676	0	110
49	726	0	110
49	1036	0	120
49	1940	0	129
49	1950	0	129
49	1954	0	129
49	1982	0	129
49	2088	0	129
49	2144	0	129
49	2760	0	135
49	3868	0	135
49	3900	0	135
49	5564	0	140
49	9200	0	142
49	10400	0	142
49	11584	0	142
50	93	0	51
50	120	0	56
50	213	0	82
50	296	0	90
50	369	0	98
50	510	0	109
50	536	0	110
50	602	0	110
50	686	0	110
50	741	0	110
50	965	0	120
50	994	0	120
50	1018	0	120
50	1110	0	120
50	1140	0	120
50	1144	0	120
50	1190	0	120
50	1652	0	124
50	1762	0	124
50	1824	0	127
50	2034	0	129
50	2424	0	133
50	2816	0	135
50	3236	0	135
50	3396	0	135
50	3596	0	135
50	3624	0	135
50	4600	0	137
50	4940	0	140
50	5164	0	140
50	5556	0	140
50	5896	0	140
50	5988	0	141
50	6264	0	141
50	6488	0	141
50	6784	0	141
50	6904	0	141
50	7392	0	141
50	8688	0	141
50	8768	0	141
50	10136	0	142
50	10408	0	142
50	11376	0	142
50	12176	0	142
51	107	0	52
51	243	0	85
51	272	0	88
51	291	0	90
51	297	0	90
51	429	0	109
51	488	0	109
51	684	0	110
51	702	0	110
51	809	0	119
51	976	0	120
51	1028	0	120
51	1406	0	124
51	1522	0	124
51	1746	0	124
51	1872	0	127
51	2172	0	129
51	2224	0	130
51	2714	0	135
51	2802	0	135
51	2984	0	135
51	3052	0	135
51	3488	0	135
51	3600	0	135
51	3608	0	135
51	3632	0	135
51	3792	0	135
51	4856	0	139
51	5684	0	140
51	5828	0	140
51	6356	0	141
51	6564	0	141
51	6668	0	141
51	7968	0	141
51	8104	0	141
51	8144	0	141
51	8208	0	141
51	8224	0	141
51	8344	0	141
51	8832	0	141
51	9360	0	142
51	9560	0	142
51	9960	0	142
51	10168	0	142
51	11776	0	142
52	108	0	53
52	277	0	89
52	315	0	90
52	329	0	96
52	455	0	109
52	797	0	119
52	969	0	120
52	1084	0	120
52	1122	0	120
52	1422	0	124
52	1784	0	124
52	1874	0	127
52	2118	0	129
52	2196	0	130
52	2834	0	135
52	2876	0	135
52	2970	0	135
52	2996	0	135
52	3144	0	135
52	3224	0	135
52	3424	0	135
52	3988	0	135
52	4860	0	139
52	4924	0	140
52	5712	0	140
52	6140	0	141
52	6388	0	141
52	9328	0	142
52	9352	0	142
52	11072	0	142
52	11520	0	142
52	12024	0	142
53	111	0	54
53	223	0	83
53	241	0	85
53	422	0	108
53	449	0	109
53	566	0	110
53	663	0	110
53	943	0	120
53	954	0	120
53	1050	0	120
53	1394	0	124
53	1446	0	124
53	1482	0	124
53	1494	0	124
53	1816	0	127
53	2064	0	129
53	2256	0	130
53	2312	0	130
53	2852	0	135
53	2884	0	135
53	2898	0	135
53	2950	0	135
53	2986	0	135
53	4148	0	137
53	4160	0	137
53	4204	0	137
53	4708	0	137
53	5100	0	140
53	5272	0	140
53	5324	0	140
53	5940	0	140
53	6220	0	141
53	6316	0	141
53	6728	0	141
53	6772	0	141
53	6908	0	141
53	6984	0	141
53	7048	0	141
53	7608	0	141
53	7776	0	141
53	8504	0	141
53	8536	0	141
53	8568	0	141
53	8864	0	141
53	9392	0	142
53	9664	0	142
53	11440	0	142
53	11536	0	142
54	114	0	55
54	492	0	109
54	550	0	110
54	585	0	110
54	634	0	110
54	1086	0	120
54	1136	0	120
54	1388	0	124
54	1404	0	124
54	1558	0	124
54	1774	0	124
54	1786	0	124
54	2174	0	129
54	2262	0	130
54	2854	0	135
54	3452	0	135
54	4044	0	135
54	4268	0	137
54	4688	0	137
54	4712	0	137
54	5256	0	140
54	6032	0	141
54	6492	0	141
54	6552	0	141
54	8032	0	141
54	8584	0	141
54	9304	0	142
54	10248	0	142
54	10320	0	142
54	10512	0	142
54	10920	0	142
54	11736	0	142
55	115	0	56
55	225	0	83
55	348	0	96
55	579	0	110
55	640	0	110
55	723	0	110
55	979	0	120
55	1008	0	120
55	1120	0	120
55	1228	0	120
55	1534	0	124
55	1646	0	124
55	1672	0	124
55	1758	0	124
55	1866	0	127
55	2258	0	130
55	2426	0	133
55	3644	0	135
55	4212	0	137
55	4248	0	137
55	4844	0	138
55	5084	0	140
55	5604	0	140
55	5716	0	140
55	6040	0	141
55	7704	0	141
55	7832	0	141
55	7952	0	141
55	8552	0	141
55	8656	0	141
55	9760	0	142
55	9912	0	142
55	10424	0	142
56	124	0	57
56	133	0	60
56	161	0	70
56	356	0	96
56	358	0	96
56	435	0	109
56	893	0	119
56	900	0	119
56	989	0	120
56	1622	0	124
56	4316	0	137
56	4616	0	137
56	5580	0	140
56	5844	0	140
56	5908	0	140
56	6748	0	141
56	7112	0	141
56	7616	0	141
56	8432	0	141
56	8728	0	141
57	126	0	58
57	258	0	87
57	260	0	87
57	886	0	119
57	894	0	119
57	901	0	119
57	2074	0	129
57	4092	0	135
57	4292	0	137
57	4324	0	137
57	4356	0	137
57	5748	0	140
57	5788	0	140
57	6928	0	141
57	7120	0	141
57	7672	0	141
57	11808	0	142
58	128	0	59
58	463	0	109
58	889	0	119
58	2078	0	129
58	3944	0	135
58	4308	0	137
58	4340	0	137
58	5592	0	140
58	6956	0	141
58	7752	0	141
58	8184	0	141
58	11816	0	142
59	132	0	60
59	142	0	63
59	147	0	66
59	921	0	120
59	925	0	120
59	934	0	120
59	1376	0	124
59	1712	0	124
59	1726	0	124
59	1990	0	129
59	2004	0	129
59	2080	0	129
59	2718	0	135
59	4084	0	135
59	4232	0	137
59	4300	0	137
59	4464	0	137
59	5020	0	140
59	5048	0	140
59	5412	0	140
59	5612	0	140
59	5840	0	140
59	6180	0	141
59	6592	0	141
59	6604	0	141
59	6732	0	141
59	7648	0	141
59	7664	0	141
59	7760	0	141
59	8496	0	141
59	8624	0	141
60	134	0	61
60	359	0	96
60	464	0	109
60	902	0	119
60	1570	0	124
60	1620	0	124
60	1724	0	124
60	2050	0	129
60	2218	0	130
60	4088	0	135
60	4104	0	135
60	4332	0	137
60	4348	0	137
60	4552	0	137
60	4620	0	137
60	5028	0	140
60	5780	0	140
60	6176	0	141
60	10064	0	142
61	138	0	62
61	353	0	96
61	573	0	110
61	578	0	110
61	621	0	110
61	689	0	110
61	842	0	119
61	997	0	120
61	1066	0	120
61	1162	0	120
61	1198	0	120
61	1226	0	120
61	1382	0	124
61	1420	0	124
61	1484	0	124
61	1510	0	124
61	1694	0	124
61	1848	0	127
61	2148	0	129
61	2290	0	130
61	2330	0	130
61	2786	0	135
61	2804	0	135
61	3212	0	135
61	3668	0	135
61	4272	0	137
61	5140	0	140
61	6292	0	141
61	6624	0	141
61	7560	0	141
61	8256	0	141
61	8360	0	141
61	8384	0	141
61	8648	0	141
61	9168	0	142
61	9280	0	142
61	9728	0	142
61	9864	0	142
61	9880	0	142
61	10088	0	142
61	10872	0	142
61	11512	0	142
61	11616	0	142
61	11872	0	142
61	11952	0	142
62	140	0	63
62	208	0	82
62	238	0	85
62	330	0	96
62	451	0	109
62	544	0	110
62	567	0	110
62	580	0	110
62	593	0	110
62	597	0	110
62	611	0	110
62	800	0	119
62	923	0	120
62	950	0	120
62	1004	0	120
62	1068	0	120
62	1130	0	120
62	1164	0	120
62	1478	0	124
62	1606	0	124
62	1640	0	124
62	1674	0	124
62	1988	0	129
62	2006	0	129
62	2024	0	129
62	2082	0	129
62	2150	0	129
62	2348	0	131
62	2908	0	135
62	2914	0	135
62	2988	0	135
62	3024	0	135
62	3780	0	135
62	3844	0	135
62	4052	0	135
62	4668	0	137
62	5012	0	140
62	5088	0	140
62	5268	0	140
62	5368	0	140
62	5772	0	140
62	5912	0	140
62	11384	0	142
62	11424	0	142
63	144	0	64
63	471	0	109
63	882	0	119
63	914	0	120
63	1378	0	124
63	1722	0	124
63	2076	0	129
63	3948	0	135
63	4128	0	135
63	4304	0	137
63	4344	0	137
63	4556	0	137
63	6744	0	141
63	6932	0	141
63	6964	0	141
63	8448	0	141
63	11824	0	142
64	145	0	65
64	917	0	120
64	4336	0	137
64	4548	0	137
65	146	0	66
65	884	0	119
65	913	0	120
65	991	0	120
65	1528	0	124
65	2068	0	129
65	4116	0	135
65	4468	0	137
65	5060	0	140
65	5588	0	140
65	6164	0	141
65	6736	0	141
65	6968	0	141
65	8736	0	141
65	9096	0	142
66	152	0	67
66	204	0	82
66	240	0	85
66	278	0	89
66	289	0	90
66	295	0	90
66	309	0	90
66	425	0	108
66	428	0	109
66	490	0	109
66	549	0	110
66	612	0	110
66	660	0	110
66	1230	0	120
66	1594	0	124
66	1688	0	124
66	2138	0	129
66	2204	0	130
66	2446	0	133
66	2724	0	135
66	2872	0	135
66	2962	0	135
66	3000	0	135
66	3028	0	135
66	3432	0	135
66	3840	0	135
66	3968	0	135
66	4008	0	135
66	4028	0	135
66	4200	0	137
66	5092	0	140
66	5116	0	140
66	5876	0	140
66	5884	0	140
66	6052	0	141
66	6088	0	141
66	6100	0	141
66	6548	0	141
66	7328	0	141
66	8232	0	141
66	8368	0	141
66	10440	0	142
66	10592	0	142
66	10856	0	142
67	153	0	68
67	155	0	69
67	310	0	90
67	530	0	110
67	725	0	110
67	1094	0	120
67	1146	0	120
67	1504	0	124
67	1682	0	124
67	2092	0	129
67	2100	0	129
67	2142	0	129
67	2414	0	133
67	2758	0	135
67	3292	0	135
67	3812	0	135
67	3896	0	135
67	4196	0	137
67	4984	0	140
67	5192	0	140
67	5520	0	140
67	5932	0	140
67	6528	0	141
67	6544	0	141
67	6576	0	141
67	9024	0	142
67	9040	0	142
67	9704	0	142
68	154	0	69
68	199	0	80
68	514	0	109
68	524	0	110
68	654	0	110
68	1016	0	120
68	1022	0	120
68	1442	0	124
68	1946	0	129
68	6504	0	141
68	9216	0	142
68	9448	0	142
68	9472	0	142
69	157	0	70
69	326	0	96
69	347	0	96
69	448	0	109
69	491	0	109
69	564	0	110
69	571	0	110
69	587	0	110
69	630	0	110
69	633	0	110
69	795	0	119
69	812	0	119
69	955	0	120
69	984	0	120
69	1116	0	120
69	1194	0	120
69	1212	0	120
69	1224	0	120
69	1246	0	120
69	1262	0	122
69	1392	0	124
69	1542	0	124
69	1546	0	124
69	1636	0	124
69	1870	0	127
69	2102	0	129
69	2326	0	130
69	2448	0	133
69	2808	0	135
69	2894	0	135
69	3528	0	135
69	3588	0	135
69	3984	0	135
69	4488	0	137
69	4504	0	137
69	4516	0	137
69	4656	0	137
69	4816	0	137
69	5760	0	140
69	5852	0	140
69	6628	0	141
69	6680	0	141
69	6704	0	141
69	7088	0	141
69	7456	0	141
69	7600	0	141
69	7896	0	141
69	8216	0	141
69	8672	0	141
69	10896	0	142
69	11328	0	142
69	11608	0	142
70	165	0	71
70	168	0	71
70	362	0	98
70	883	0	119
70	922	0	120
70	992	0	120
70	1994	0	129
70	1998	0	129
70	2072	0	129
70	2954	0	135
70	3720	0	135
70	3956	0	135
70	4560	0	137
70	6944	0	141
70	7008	0	141
70	7128	0	141
70	7768	0	141
70	8312	0	141
71	170	0	72
71	396	0	104
71	450	0	109
71	502	0	109
71	701	0	110
71	802	0	119
71	845	0	119
71	910	0	120
71	924	0	120
71	975	0	120
71	1366	0	124
71	1438	0	124
71	1518	0	124
71	1566	0	124
71	1944	0	129
71	2056	0	129
71	2128	0	129
71	2168	0	129
71	2246	0	130
71	2788	0	135
71	3248	0	135
71	3548	0	135
71	3752	0	135
71	3924	0	135
71	4524	0	137
71	4576	0	137
71	4648	0	137
71	4764	0	137
71	5016	0	140
71	5036	0	140
71	5232	0	140
71	5632	0	140
71	5688	0	140
71	6312	0	141
71	6612	0	141
71	9000	0	142
71	10152	0	142
71	11040	0	142
71	11056	0	142
71	11864	0	142
71	11912	0	142
72	171	0	73
72	173	0	74
72	175	0	74
72	177	0	75
72	183	0	78
72	190	0	79
72	198	0	80
72	847	0	119
72	858	0	119
72	860	0	119
72	866	0	119
72	871	0	119
72	880	0	119
72	911	0	120
72	5432	0	140
72	5452	0	140
72	5468	0	140
72	5484	0	140
72	5500	0	140
72	9464	0	142
73	172	0	74
73	174	0	74
73	515	0	109
73	522	0	110
73	869	0	119
73	873	0	119
73	877	0	119
73	5424	0	140
73	5444	0	140
73	5480	0	140
74	176	0	75
74	179	0	76
74	189	0	79
74	196	0	80
74	521	0	110
74	874	0	119
74	878	0	119
75	178	0	76
75	180	0	76
75	186	0	79
75	192	0	79
75	848	0	119
75	5448	0	140
75	5456	0	140
76	181	0	77
76	187	0	79
76	195	0	80
76	520	0	110
76	870	0	119
76	872	0	119
76	5436	0	140
77	182	0	78
77	184	0	78
77	191	0	79
77	193	0	79
77	197	0	80
77	516	0	109
77	519	0	110
77	855	0	119
77	861	0	119
77	864	0	119
77	876	0	119
77	5464	0	140
78	185	0	79
78	188	0	79
78	523	0	110
78	859	0	119
78	863	0	119
78	868	0	119
78	879	0	119
78	5492	0	140
78	9440	0	142
78	9456	0	142
79	194	0	80
79	517	0	109
79	850	0	119
79	852	0	119
79	854	0	119
79	856	0	119
79	862	0	119
79	867	0	119
79	5428	0	140
79	5472	0	140
80	200	0	81
80	345	0	96
80	511	0	109
80	591	0	110
80	662	0	110
80	963	0	120
80	1500	0	124
80	1658	0	124
80	2014	0	129
80	2146	0	129
80	2254	0	130
80	2420	0	133
80	2750	0	135
80	3300	0	135
80	4172	0	137
80	4188	0	137
80	4440	0	137
80	4660	0	137
80	5360	0	140
80	6540	0	141
80	6684	0	141
80	7320	0	141
80	7464	0	141
80	9384	0	142
80	9600	0	142
80	9840	0	142
80	11640	0	142
80	12192	0	142
81	201	0	82
81	525	0	110
81	758	0	111
81	1024	0	120
81	1176	0	120
81	1414	0	124
81	1980	0	129
81	2422	0	133
81	2564	0	134
81	2902	0	135
81	3304	0	135
81	4988	0	140
81	5952	0	140
81	6508	0	141
81	7344	0	141
81	7376	0	141
81	8888	0	141
81	9688	0	142
81	12184	0	142
82	221	0	83
82	251	0	85
82	253	0	86
82	273	0	88
82	281	0	89
82	333	0	96
82	418	0	108
82	476	0	109
82	505	0	109
82	539	0	110
82	645	0	110
82	671	0	110
82	939	0	120
82	957	0	120
82	1390	0	124
82	1556	0	124
82	1610	0	124
82	1782	0	124
82	1814	0	127
82	2198	0	130
82	3080	0	135
82	3180	0	135
82	3284	0	135
82	3320	0	135
82	3400	0	135
82	3436	0	135
82	3576	0	135
82	3916	0	135
82	4020	0	135
82	4048	0	135
82	5392	0	140
82	5668	0	140
82	5700	0	140
82	5984	0	141
82	6132	0	141
82	6556	0	141
82	8704	0	141
82	9152	0	142
82	10304	0	142
82	10504	0	142
82	12232	0	142
83	232	0	84
83	237	0	85
83	284	0	89
83	366	0	98
83	385	0	100
83	400	0	104
83	456	0	109
83	469	0	109
83	541	0	110
83	704	0	110
83	709	0	110
83	731	0	110
83	734	0	110
83	806	0	119
83	928	0	120
83	977	0	120
83	987	0	120
83	1240	0	120
83	1426	0	124
83	1486	0	124
83	1608	0	124
83	1634	0	124
83	1760	0	124
83	1842	0	127
83	2880	0	135
83	2936	0	135
83	3020	0	135
83	3360	0	135
83	3444	0	135
83	3484	0	135
83	3760	0	135
83	4788	0	137
83	4848	0	138
83	5148	0	140
83	5764	0	140
83	5832	0	140
83	6188	0	141
83	6268	0	141
83	6348	0	141
83	6660	0	141
83	7520	0	141
83	7576	0	141
83	9928	0	142
83	10128	0	142
83	10912	0	142
83	11480	0	142
83	11504	0	142
84	234	0	85
84	325	0	96
84	372	0	98
84	715	0	110
84	755	0	111
84	762	0	111
84	810	0	119
84	1026	0	120
84	1192	0	120
84	1936	0	129
84	1952	0	129
84	2268	0	130
84	2332	0	130
84	2794	0	135
84	2924	0	135
84	2992	0	135
84	3076	0	135
84	5128	0	140
84	5948	0	140
84	5972	0	140
84	6520	0	141
84	8072	0	141
84	8696	0	141
84	9536	0	142
84	9616	0	142
84	9696	0	142
84	9720	0	142
84	11568	0	142
84	12208	0	142
85	252	0	86
85	322	0	95
85	413	0	108
85	787	0	116
85	1032	0	120
85	1324	0	124
85	1928	0	129
85	2180	0	129
85	2270	0	130
85	2394	0	133
85	2450	0	133
85	2558	0	134
85	2664	0	134
85	2746	0	135
85	3524	0	135
85	3656	0	135
85	4976	0	140
85	6632	0	141
85	9184	0	142
85	11320	0	142
85	12112	0	142
85	12240	0	142
86	255	0	87
86	294	0	90
86	341	0	96
86	343	0	96
86	424	0	108
86	443	0	109
86	537	0	110
86	598	0	110
86	657	0	110
86	680	0	110
86	714	0	110
86	1170	0	120
86	1626	0	124
86	1630	0	124
86	1698	0	124
86	1810	0	127
86	1854	0	127
86	2152	0	129
86	2318	0	130
86	2774	0	135
86	2836	0	135
86	2850	0	135
86	3092	0	135
86	3456	0	135
86	3556	0	135
86	3732	0	135
86	4024	0	135
86	4060	0	135
86	4152	0	137
86	4696	0	137
86	5004	0	140
86	5664	0	140
86	5944	0	140
86	6332	0	141
86	6484	0	141
86	7448	0	141
86	7568	0	141
86	7592	0	141
86	8048	0	141
86	8064	0	141
86	9888	0	142
86	10200	0	142
86	10256	0	142
86	10888	0	142
86	11400	0	142
86	11552	0	142
86	12032	0	142
86	12048	0	142
87	266	0	88
87	535	0	110
87	577	0	110
87	590	0	110
87	614	0	110
87	659	0	110
87	744	0	110
87	746	0	111
87	1030	0	120
87	1148	0	120
87	1152	0	120
87	1278	0	122
87	1506	0	124
87	1540	0	124
87	2570	0	134
87	2756	0	135
87	2796	0	135
87	3004	0	135
87	3072	0	135
87	3408	0	135
87	3620	0	135
87	3664	0	135
87	3872	0	135
87	4176	0	137
87	4780	0	137
87	5960	0	140
87	8984	0	141
87	9136	0	142
87	9192	0	142
87	9712	0	142
87	10976	0	142
87	11688	0	142
88	274	0	89
88	432	0	109
88	504	0	109
88	576	0	110
88	616	0	110
88	619	0	110
88	632	0	110
88	665	0	110
88	807	0	119
88	953	0	120
88	1172	0	120
88	1282	0	122
88	1592	0	124
88	1680	0	124
88	1794	0	127
88	1930	0	129
88	2120	0	129
88	2302	0	130
88	2416	0	133
88	2572	0	134
88	2706	0	135
88	2798	0	135
88	2814	0	135
88	3616	0	135
88	3972	0	135
88	4380	0	137
88	4436	0	137
88	4480	0	137
88	5136	0	140
88	5288	0	140
88	5656	0	140
88	6192	0	141
88	6328	0	141
88	6360	0	141
88	6480	0	141
88	6788	0	141
88	7512	0	141
88	8088	0	141
88	9312	0	142
88	9736	0	142
88	10184	0	142
88	10288	0	142
88	10520	0	142
88	10944	0	142
88	11936	0	142
89	286	0	90
89	304	0	90
89	607	0	110
89	617	0	110
89	639	0	110
89	647	0	110
89	751	0	111
89	927	0	120
89	1488	0	124
89	1536	0	124
89	1600	0	124
89	1718	0	124
89	1828	0	127
89	2234	0	130
89	2444	0	133
89	2702	0	135
89	2934	0	135
89	2982	0	135
89	3040	0	135
89	3160	0	135
89	3232	0	135
89	3836	0	135
89	4680	0	137
89	5096	0	140
89	5252	0	140
89	5732	0	140
89	5892	0	140
89	6296	0	141
89	6768	0	141
89	7408	0	141
89	8096	0	141
89	8128	0	141
89	9640	0	142
89	10464	0	142
89	11528	0	142
89	11760	0	142
90	316	0	91
90	320	0	94
90	387	0	100
90	785	0	116
90	1314	0	124
90	1892	0	127
90	1916	0	129
90	2178	0	129
90	2462	0	133
90	2524	0	134
90	2644	0	134
90	2650	0	134
90	2668	0	134
90	2736	0	135
90	6420	0	141
90	6812	0	141
90	6836	0	141
90	10536	0	142
90	10576	0	142
90	11216	0	142
90	11312	0	142
90	12120	0	142
91	317	0	92
91	426	0	108
91	769	0	111
91	782	0	114
91	1960	0	129
91	2406	0	133
91	2490	0	133
91	2528	0	134
91	2548	0	134
91	2554	0	134
91	2594	0	134
91	2660	0	134
91	2864	0	135
91	4956	0	140
91	6796	0	141
91	6864	0	141
91	10776	0	142
92	318	0	93
92	781	0	114
92	789	0	116
92	1322	0	124
92	1344	0	124
92	1926	0	129
92	2372	0	132
92	2578	0	134
92	2622	0	134
92	2656	0	134
92	3504	0	135
92	6072	0	141
92	6460	0	141
92	8944	0	141
92	10640	0	142
92	12104	0	142
93	319	0	94
93	771	0	111
93	1318	0	124
93	2392	0	133
93	2504	0	133
93	2510	0	133
93	2530	0	134
93	2592	0	134
93	2638	0	134
93	3512	0	135
93	4964	0	140
93	6800	0	141
93	6808	0	141
93	6856	0	141
93	10736	0	142
93	11104	0	142
93	11136	0	142
93	11280	0	142
94	321	0	95
94	391	0	103
94	668	0	110
94	1260	0	122
94	1284	0	122
94	1336	0	124
94	1354	0	124
94	2356	0	131
94	2384	0	132
94	2542	0	134
94	2546	0	134
94	2574	0	134
94	2586	0	134
94	2596	0	134
94	4512	0	137
94	6068	0	141
94	6084	0	141
94	6792	0	141
94	10600	0	142
94	10616	0	142
94	10632	0	142
95	323	0	96
95	414	0	108
95	512	0	109
95	675	0	110
95	767	0	111
95	1034	0	120
95	1974	0	129
95	1978	0	129
95	2562	0	134
95	2726	0	135
95	2748	0	135
95	2928	0	135
95	3892	0	135
95	4776	0	137
95	6512	0	141
95	9608	0	142
95	10392	0	142
95	11672	0	142
95	12200	0	142
96	360	0	97
96	364	0	98
96	478	0	109
96	720	0	110
96	881	0	119
96	897	0	119
96	912	0	120
96	920	0	120
96	1572	0	124
96	1728	0	124
96	2044	0	129
96	3748	0	135
96	3936	0	135
96	4100	0	135
96	4112	0	135
96	4312	0	137
96	4320	0	137
96	4580	0	137
96	5032	0	140
96	5408	0	140
96	5636	0	140
96	5644	0	140
96	5784	0	140
96	6608	0	141
96	6924	0	141
96	8400	0	141
96	8424	0	141
96	8816	0	141
96	11792	0	142
96	11896	0	142
97	361	0	98
97	436	0	109
97	472	0	109
97	918	0	120
97	1992	0	129
97	1996	0	129
97	2052	0	129
97	2070	0	129
97	3940	0	135
97	4096	0	135
97	4108	0	135
97	4288	0	137
97	5584	0	140
97	6920	0	141
97	7656	0	141
97	8176	0	141
97	8472	0	141
97	10040	0	142
98	373	0	99
98	693	0	110
98	695	0	110
98	756	0	111
98	973	0	120
98	1096	0	120
98	1412	0	124
98	1956	0	129
98	2090	0	129
98	2096	0	129
98	3880	0	135
98	3888	0	135
98	5956	0	140
98	6536	0	141
98	7352	0	141
98	7368	0	141
98	11664	0	142
99	375	0	100
99	377	0	100
99	381	0	100
99	415	0	108
99	766	0	111
99	1040	0	120
99	1178	0	120
99	2926	0	135
99	3884	0	135
99	5184	0	140
99	5356	0	140
99	5384	0	140
99	7384	0	141
99	7984	0	141
99	8776	0	141
99	8904	0	141
99	9208	0	142
99	9224	0	142
99	9480	0	142
99	9624	0	142
99	11592	0	142
100	388	0	101
100	410	0	106
100	774	0	112
100	1338	0	124
100	1342	0	124
100	1888	0	127
100	1906	0	128
100	1924	0	129
100	2366	0	131
100	2370	0	132
100	2682	0	135
100	3508	0	135
100	11128	0	142
101	389	0	102
101	409	0	106
101	772	0	111
101	1296	0	123
101	1348	0	124
101	1884	0	127
101	1908	0	128
101	1922	0	129
101	2388	0	132
101	2402	0	133
101	2484	0	133
101	2576	0	134
101	2598	0	134
101	2608	0	134
101	4904	0	140
101	4968	0	140
101	8952	0	141
101	10680	0	142
101	10744	0	142
101	11232	0	142
101	12128	0	142
102	390	0	103
102	408	0	106
102	776	0	113
102	779	0	114
102	788	0	116
102	1310	0	124
102	1834	0	127
102	1890	0	127
102	1898	0	127
102	2354	0	131
102	2404	0	133
102	2456	0	133
102	2492	0	133
102	2526	0	134
102	2540	0	134
102	2640	0	134
102	2652	0	134
102	2732	0	135
102	2860	0	135
102	4916	0	140
102	6076	0	141
102	6820	0	141
102	6892	0	141
102	10568	0	142
102	10760	0	142
102	11112	0	142
102	11208	0	142
103	392	0	104
103	405	0	105
103	407	0	106
103	1300	0	123
103	1350	0	124
103	2194	0	130
103	2396	0	133
103	2400	0	133
103	2856	0	135
103	3996	0	135
103	6432	0	141
103	10552	0	142
103	11144	0	142
103	12264	0	142
104	402	0	105
104	404	0	105
104	669	0	110
104	1286	0	122
104	1356	0	124
104	1464	0	124
104	1882	0	127
104	8040	0	141
104	8272	0	141
104	8592	0	141
104	8960	0	141
104	12080	0	142
105	406	0	106
105	770	0	111
105	786	0	116
105	1326	0	124
105	2272	0	130
105	2352	0	131
105	2488	0	133
105	2582	0	134
105	2620	0	134
105	2658	0	134
105	2692	0	135
105	2862	0	135
105	2870	0	135
105	3516	0	135
105	3652	0	135
105	4972	0	140
105	6804	0	141
105	6844	0	141
105	6860	0	141
105	10608	0	142
105	10688	0	142
105	10704	0	142
105	10768	0	142
105	11096	0	142
105	11176	0	142
105	12256	0	142
106	411	0	107
106	777	0	113
106	793	0	118
106	1328	0	124
106	1920	0	129
106	2364	0	131
106	2618	0	134
106	2642	0	134
106	2670	0	134
106	3500	0	135
106	4000	0	135
106	6440	0	141
106	6840	0	141
106	6888	0	141
106	10712	0	142
106	10824	0	142
106	11088	0	142
106	12096	0	142
107	412	0	108
107	667	0	110
107	780	0	114
107	1302	0	123
107	1312	0	124
107	1334	0	124
107	1896	0	127
107	2408	0	133
107	2494	0	133
107	2556	0	134
107	2590	0	134
107	2666	0	134
107	2730	0	135
108	427	0	109
108	1294	0	123
108	1352	0	124
108	1838	0	127
108	1918	0	129
108	1966	0	129
108	2192	0	130
108	2358	0	131
108	2522	0	134
108	2552	0	134
108	2624	0	134
108	2734	0	135
108	4884	0	140
108	6848	0	141
108	6880	0	141
108	6896	0	141
108	10528	0	142
108	10840	0	142
108	11152	0	142
108	11184	0	142
108	11200	0	142
109	518	0	110
109	846	0	119
109	849	0	119
109	851	0	119
109	853	0	119
109	857	0	119
109	865	0	119
109	875	0	119
109	1440	0	124
109	5420	0	140
109	5440	0	140
109	5460	0	140
109	5476	0	140
109	5488	0	140
109	5496	0	140
110	745	0	111
110	768	0	111
110	1100	0	120
110	1410	0	124
110	1958	0	129
110	1972	0	129
110	1976	0	129
110	2560	0	134
110	7360	0	141
110	8920	0	141
110	11680	0	142
111	773	0	112
111	1346	0	124
111	1900	0	127
111	1904	0	128
111	2472	0	133
111	2478	0	133
111	2538	0	134
111	2628	0	134
111	4872	0	139
111	6456	0	141
111	10664	0	142
111	11120	0	142
112	775	0	113
112	790	0	116
112	1836	0	127
112	1912	0	129
112	2460	0	133
112	2500	0	133
112	2588	0	134
112	2672	0	134
112	2686	0	135
112	2690	0	135
112	2858	0	135
112	2868	0	135
112	6424	0	141
112	6468	0	141
112	6816	0	141
112	6828	0	141
112	10792	0	142
112	10808	0	142
112	11256	0	142
113	778	0	114
113	1290	0	123
113	1308	0	124
113	2470	0	133
113	2602	0	134
113	2606	0	134
113	2654	0	134
113	2688	0	135
113	10816	0	142
113	11248	0	142
114	783	0	115
114	1250	0	120
114	1320	0	124
114	2186	0	129
114	2190	0	130
114	2520	0	134
114	2550	0	134
114	2744	0	135
114	10696	0	142
115	784	0	116
115	1914	0	129
115	2378	0	132
115	2468	0	133
115	2496	0	133
115	2512	0	133
115	2534	0	134
115	2600	0	134
115	2612	0	134
115	2630	0	134
115	2634	0	134
115	2738	0	135
115	4900	0	140
115	6444	0	141
115	10648	0	142
116	791	0	117
116	1258	0	122
116	2458	0	133
116	2502	0	133
116	2584	0	134
116	4888	0	140
116	4960	0	140
116	6472	0	141
116	6852	0	141
116	6868	0	141
116	6876	0	141
116	10784	0	142
116	10848	0	142
116	12136	0	142
117	792	0	118
117	1254	0	121
117	1292	0	123
117	2452	0	133
117	2518	0	134
117	2544	0	134
117	2636	0	134
117	2866	0	135
117	6884	0	141
117	10832	0	142
117	11304	0	142
118	794	0	119
118	1248	0	120
118	1304	0	123
118	1316	0	124
118	1330	0	124
118	1832	0	127
118	1894	0	127
118	1964	0	129
118	2182	0	129
118	2454	0	133
118	3496	0	135
118	4004	0	135
118	5880	0	140
118	6476	0	141
118	11272	0	142
118	12152	0	142
118	12248	0	142
118	12272	0	142
119	909	0	120
119	962	0	120
119	964	0	120
119	1184	0	120
119	1684	0	124
119	3688	0	135
119	5200	0	140
119	5504	0	140
119	5560	0	140
119	9432	0	142
120	1252	0	121
120	1968	0	129
120	2464	0	133
120	2486	0	133
120	2508	0	133
120	2580	0	134
120	2648	0	134
120	2662	0	134
120	3520	0	135
120	4880	0	140
120	6080	0	141
120	6464	0	141
120	10560	0	142
120	10752	0	142
120	11168	0	142
120	11264	0	142
120	11288	0	142
121	1256	0	122
121	1970	0	129
121	2184	0	129
121	6872	0	141
121	8928	0	141
121	11296	0	142
121	12144	0	142
122	1288	0	123
122	1298	0	123
122	1340	0	124
122	2374	0	132
122	2380	0	132
122	2398	0	133
122	2476	0	133
122	2480	0	133
122	2536	0	134
122	2676	0	135
122	4868	0	139
122	6436	0	141
122	6824	0	141
122	6832	0	141
122	10672	0	142
122	10728	0	142
123	1306	0	124
123	1332	0	124
123	1886	0	127
123	2360	0	131
123	2466	0	133
123	2498	0	133
123	2610	0	134
123	2626	0	134
123	2646	0	134
123	2678	0	135
123	4876	0	140
123	4892	0	140
123	6428	0	141
123	10544	0	142
123	11192	0	142
124	1902	0	128
124	2376	0	132
124	2474	0	133
124	2632	0	134
124	2680	0	135
124	4896	0	140
124	6452	0	141
124	10656	0	142
125	1910	0	129
125	2362	0	131
125	2382	0	132
125	2386	0	132
125	2482	0	133
125	4912	0	140
125	4920	0	140
125	9336	0	142
125	10720	0	142
125	11080	0	142
125	12088	0	142
126	2188	0	130
126	2516	0	134
126	2742	0	135
126	8936	0	141
127	2368	0	132
127	2614	0	134
127	2684	0	135
127	10800	0	142
128	2390	0	133
128	2532	0	134
128	2604	0	134
128	2616	0	134
128	6448	0	141
128	11240	0	142
129	2514	0	134
129	2740	0	135
130	2674	0	135
130	3992	0	135
130	4864	0	139
130	4908	0	140
130	9344	0	142
130	11224	0	142
131	4744	0	137
132	11160	0	142
132	12280	0	142
133	12288	0	143
134	12296	0	144
135	12304	0	145

