file 69718 1756984398                                           
version 3
run General-239-20250904-14:13:18-15599
attr configname General
attr datetime 20250904-14:13:18
attr datetimef 20250904-141318
attr experiment General
attr inifile omnetpp.ini
attr iterationvars ""
attr iterationvarsd ""
attr iterationvarsf ""
attr measurement ""
attr network TaxiNetwork
attr processid 15599
attr repetition 239
attr replication #239
attr resultdir results
attr runnumber 239
attr seedset 239
config network TaxiNetwork
config seed-set 239
config num-rngs 1
config sim-time-limit 10s
config repeat 500
config *.numWalkers 1
config *.enableDuplication true
config *.rc 700
config **.node[0].xCor 2933
config **.node[0].yCor 2747
config **.node[1].xCor 2919
config **.node[1].yCor 2817
config **.node[2].xCor 2910
config **.node[2].yCor 2861
config **.node[3].xCor 2429
config **.node[3].yCor 2851
config **.node[4].xCor 2908
config **.node[4].yCor 2714
config **.node[5].xCor 2606
config **.node[5].yCor 2722
config **.node[6].xCor 2575
config **.node[6].yCor 2753
config **.node[7].xCor 2654
config **.node[7].yCor 2513
config **.node[8].xCor 2773
config **.node[8].yCor 2580
config **.node[9].xCor 3043
config **.node[9].yCor 2780
config **.node[10].xCor 3020
config **.node[10].yCor 2813
config **.node[11].xCor 2599
config **.node[11].yCor 2300
config **.node[12].xCor 2917
config **.node[12].yCor 2698
config **.node[13].xCor 2625
config **.node[13].yCor 2641
config **.node[14].xCor 2604
config **.node[14].yCor 2790
config **.node[15].xCor 2786
config **.node[15].yCor 3082
config **.node[16].xCor 2603
config **.node[16].yCor 2802
config **.node[17].xCor 2637
config **.node[17].yCor 2869
config **.node[18].xCor 2675
config **.node[18].yCor 2955
config **.node[19].xCor 2845
config **.node[19].yCor 2937
config **.node[20].xCor 2860
config **.node[20].yCor 2888
config **.node[21].xCor 2843
config **.node[21].yCor 4158
config **.node[22].xCor 2852
config **.node[22].yCor 4017
config **.node[23].xCor 2892
config **.node[23].yCor 4961
config **.node[24].xCor 2313
config **.node[24].yCor 3993
config **.node[25].xCor 2891
config **.node[25].yCor 4959
config **.node[26].xCor 2370
config **.node[26].yCor 4050
config **.node[27].xCor 2788
config **.node[27].yCor 3958
config **.node[28].xCor 2819
config **.node[28].yCor 4428
config **.node[29].xCor 2790
config **.node[29].yCor 3761
config **.node[30].xCor 2809
config **.node[30].yCor 2908
config **.node[31].xCor 2919
config **.node[31].yCor 3575
config **.node[32].xCor 2946
config **.node[32].yCor 3466
config **.node[33].xCor 2911
config **.node[33].yCor 3453
config **.node[34].xCor 2370
config **.node[34].yCor 3656
config **.node[35].xCor 2438
config **.node[35].yCor 3738
config **.node[36].xCor 2737
config **.node[36].yCor 3570
config **.node[37].xCor 2921
config **.node[37].yCor 3698
config **.node[38].xCor 2907
config **.node[38].yCor 5197
config **.node[39].xCor 2860
config **.node[39].yCor 3852
config **.node[40].xCor 2927
config **.node[40].yCor 3684
config **.node[41].xCor 3023
config **.node[41].yCor 5313
config **.node[42].xCor 3220
config **.node[42].yCor 5811
config **.node[43].xCor 3432
config **.node[43].yCor 5715
config **.node[44].xCor 2754
config **.node[44].yCor 2463
config **.node[45].xCor 2646
config **.node[45].yCor 2673
config **.node[46].xCor 3051
config **.node[46].yCor 2792
config **.node[47].xCor 1666
config **.node[47].yCor 3697
config **.node[48].xCor 1662
config **.node[48].yCor 3694
config **.node[49].xCor 1664
config **.node[49].yCor 3667
config **.node[50].xCor 1660
config **.node[50].yCor 3664
config **.node[51].xCor 1710
config **.node[51].yCor 3573
config **.node[52].xCor 2082
config **.node[52].yCor 2650
config **.node[53].xCor 2086
config **.node[53].yCor 2657
config **.node[54].xCor 2257
config **.node[54].yCor 3232
config **.node[55].xCor 2258
config **.node[55].yCor 3225
config **.node[56].xCor 1926
config **.node[56].yCor 2570
config **.node[57].xCor 1926
config **.node[57].yCor 2576
config **.node[58].xCor 2104
config **.node[58].yCor 1758
config **.node[59].xCor 1957
config **.node[59].yCor 1826
config **.node[60].xCor 3473
config **.node[60].yCor 1523
config **.node[61].xCor 3335
config **.node[61].yCor 1726
config **.node[62].xCor 3478
config **.node[62].yCor 1517
config **.node[63].xCor 3386
config **.node[63].yCor 2119
config **.node[64].xCor 3474
config **.node[64].yCor 1762
config **.node[65].xCor 3797
config **.node[65].yCor 2099
config **.node[66].xCor 3642
config **.node[66].yCor 2136
config **.node[67].xCor 3481
config **.node[67].yCor 2334
config **.node[68].xCor 3088
config **.node[68].yCor 1505
config **.node[69].xCor 3037
config **.node[69].yCor 1693
config **.node[70].xCor 3026
config **.node[70].yCor 1700
config **.node[71].xCor 3019
config **.node[71].yCor 669
config **.node[72].xCor 3513
config **.node[72].yCor 1358
config **.node[73].xCor 3545
config **.node[73].yCor 1230
config **.node[74].xCor 4228
config **.node[74].yCor 4220
config **.node[75].xCor 3379
config **.node[75].yCor 1207
config **.node[76].xCor 3596
config **.node[76].yCor 963
config **.node[77].xCor 3637
config **.node[77].yCor 1188
config **.node[78].xCor 3759
config **.node[78].yCor 1030
config **.node[79].xCor 2918
config **.node[79].yCor 1455
config **.node[80].xCor 2711
config **.node[80].yCor 1297
config **.node[81].xCor 439
config **.node[81].yCor 1623
config **.node[82].xCor 2857
config **.node[82].yCor 3581
config **.node[83].xCor 2858
config **.node[83].yCor 3584
config **.node[84].xCor 2999
config **.node[84].yCor 2636
config **.node[85].xCor 2905
config **.node[85].yCor 2778
config **.node[86].xCor 2653
config **.node[86].yCor 2845
config **.node[87].xCor 2864
config **.node[87].yCor 2836
config **.node[88].xCor 2426
config **.node[88].yCor 2892
config **.node[89].xCor 2964
config **.node[89].yCor 2804
config **.node[90].xCor 2586
config **.node[90].yCor 3135
config **.node[91].xCor 2864
config **.node[91].yCor 2980
config **.node[92].xCor 2527
config **.node[92].yCor 3219
config **.node[93].xCor 2863
config **.node[93].yCor 3142
config **.node[94].xCor 2485
config **.node[94].yCor 3269
config **.node[95].xCor 2653
config **.node[95].yCor 1065
config **.node[96].xCor 4062
config **.node[96].yCor 400
config **.node[97].xCor 5762
config **.node[97].yCor 3023
config **.node[98].xCor 1414
config **.node[98].yCor 3461
config **.node[99].xCor 2911
config **.node[99].yCor 1737
config **.node[100].xCor 2595
config **.node[100].yCor 2299
config **.node[101].xCor 2702
config **.node[101].yCor 3419
config **.node[102].xCor 2813
config **.node[102].yCor 3307
config **.node[103].xCor 2638
config **.node[103].yCor 2258
config **.node[104].xCor 2590
config **.node[104].yCor 3125
config **.node[105].xCor 1856
config **.node[105].yCor 2990
config **.node[106].xCor 1894
config **.node[106].yCor 2239
config **.node[107].xCor 383
config **.node[107].yCor 1251
config **.node[108].xCor 3447
config **.node[108].yCor 5489
config **.node[109].xCor 3450
config **.node[109].yCor 5697
config **.node[110].xCor 2719
config **.node[110].yCor 1920
config **.node[111].xCor 2085
config **.node[111].yCor 2389
config **.node[112].xCor 1910
config **.node[112].yCor 2548
config **.node[113].xCor 2069
config **.node[113].yCor 2050
config **.node[114].xCor 2184
config **.node[114].yCor 2209
config **.node[115].xCor 2278
config **.node[115].yCor 2390
config **.node[116].xCor 2249
config **.node[116].yCor 2299
config **.node[117].xCor 2356
config **.node[117].yCor 2303
config **.node[118].xCor 2192
config **.node[118].yCor 2475
config **.node[119].xCor 1720
config **.node[119].yCor 2911
config **.node[120].xCor 2400
config **.node[120].yCor 2887
config **.node[121].xCor 3344
config **.node[121].yCor 1890
config **.node[122].xCor 3136
config **.node[122].yCor 2418
config **.node[123].xCor 3243
config **.node[123].yCor 2525
config **.node[124].xCor 2396
config **.node[124].yCor 1267
config **.node[125].xCor 467
config **.node[125].yCor 1875
config **.node[126].xCor 3506
config **.node[126].yCor 1221
config **.node[127].xCor 1034
config **.node[127].yCor 1474
config **.node[128].xCor 2908
config **.node[128].yCor 1784
config **.node[129].xCor 2876
config **.node[129].yCor 1761
config **.node[130].xCor 2849
config **.node[130].yCor 1795
config **.node[131].xCor 3029
config **.node[131].yCor 1859
config **.node[132].xCor 2924
config **.node[132].yCor 1848
config **.node[133].xCor 3493
config **.node[133].yCor 1559
config **.node[134].xCor 2760
config **.node[134].yCor 1761
config **.node[135].xCor 1644
config **.node[135].yCor 3755
config **.node[136].xCor 1463
config **.node[136].yCor 3432
config **.node[137].xCor 2595
config **.node[137].yCor 2849
config **.node[138].xCor 2581
config **.node[138].yCor 2867
config **.node[139].xCor 2524
config **.node[139].yCor 2911
config **.node[140].xCor 2570
config **.node[140].yCor 2924
config **.node[141].xCor 2676
config **.node[141].yCor 2890
config **.node[142].xCor 2666
config **.node[142].yCor 2876
config **.node[143].xCor 3735
config **.node[143].yCor 1726
config **.node[144].xCor 1637
config **.node[144].yCor 3438

vector 0 TaxiNetwork.node[114] visitedPerTimestep ETV
vector 1 TaxiNetwork.node[57] visitedPerTimestep ETV
vector 2 TaxiNetwork.node[106] visitedPerTimestep ETV
vector 3 TaxiNetwork.node[59] visitedPerTimestep ETV
vector 4 TaxiNetwork.node[111] visitedPerTimestep ETV
vector 5 TaxiNetwork.node[7] visitedPerTimestep ETV
vector 6 TaxiNetwork.node[2] visitedPerTimestep ETV
vector 7 TaxiNetwork.node[85] visitedPerTimestep ETV
vector 8 TaxiNetwork.node[8] visitedPerTimestep ETV
vector 9 TaxiNetwork.node[88] visitedPerTimestep ETV
vector 10 TaxiNetwork.node[89] visitedPerTimestep ETV
vector 11 TaxiNetwork.node[15] visitedPerTimestep ETV
vector 12 TaxiNetwork.node[32] visitedPerTimestep ETV
vector 13 TaxiNetwork.node[1] visitedPerTimestep ETV
vector 14 TaxiNetwork.node[46] visitedPerTimestep ETV
vector 15 TaxiNetwork.node[86] visitedPerTimestep ETV
vector 16 TaxiNetwork.node[83] visitedPerTimestep ETV
vector 17 TaxiNetwork.node[20] visitedPerTimestep ETV
vector 18 TaxiNetwork.node[6] visitedPerTimestep ETV
vector 19 TaxiNetwork.node[141] visitedPerTimestep ETV
vector 20 TaxiNetwork.node[142] visitedPerTimestep ETV
vector 21 TaxiNetwork.node[11] visitedPerTimestep ETV
vector 22 TaxiNetwork.node[45] visitedPerTimestep ETV
vector 23 TaxiNetwork.node[3] visitedPerTimestep ETV
vector 24 TaxiNetwork.node[115] visitedPerTimestep ETV
vector 25 TaxiNetwork.node[117] visitedPerTimestep ETV
vector 26 TaxiNetwork.node[17] visitedPerTimestep ETV
vector 27 TaxiNetwork.node[0] visitedPerTimestep ETV
vector 28 TaxiNetwork.node[104] visitedPerTimestep ETV
vector 29 TaxiNetwork.node[140] visitedPerTimestep ETV
vector 30 TaxiNetwork.node[112] visitedPerTimestep ETV
vector 31 TaxiNetwork.node[116] visitedPerTimestep ETV
vector 32 TaxiNetwork.node[120] visitedPerTimestep ETV
vector 33 TaxiNetwork.node[138] visitedPerTimestep ETV
vector 34 TaxiNetwork.node[102] visitedPerTimestep ETV
vector 35 TaxiNetwork.node[30] visitedPerTimestep ETV
vector 36 TaxiNetwork.node[84] visitedPerTimestep ETV
vector 37 TaxiNetwork.node[44] visitedPerTimestep ETV
vector 38 TaxiNetwork.node[12] visitedPerTimestep ETV
vector 39 TaxiNetwork.node[123] visitedPerTimestep ETV
vector 40 TaxiNetwork.node[5] visitedPerTimestep ETV
vector 41 TaxiNetwork.node[9] visitedPerTimestep ETV
vector 42 TaxiNetwork.node[137] visitedPerTimestep ETV
vector 43 TaxiNetwork.node[91] visitedPerTimestep ETV
vector 44 TaxiNetwork.node[139] visitedPerTimestep ETV
vector 45 TaxiNetwork.node[100] visitedPerTimestep ETV
vector 46 TaxiNetwork.node[36] visitedPerTimestep ETV
vector 47 TaxiNetwork.node[92] visitedPerTimestep ETV
vector 48 TaxiNetwork.node[33] visitedPerTimestep ETV
vector 49 TaxiNetwork.node[10] visitedPerTimestep ETV
vector 50 TaxiNetwork.node[16] visitedPerTimestep ETV
vector 51 TaxiNetwork.node[19] visitedPerTimestep ETV
vector 52 TaxiNetwork.node[31] visitedPerTimestep ETV
vector 53 TaxiNetwork.node[22] visitedPerTimestep ETV
vector 54 TaxiNetwork.node[18] visitedPerTimestep ETV
vector 55 TaxiNetwork.node[87] visitedPerTimestep ETV
vector 56 TaxiNetwork.node[39] visitedPerTimestep ETV
vector 57 TaxiNetwork.node[90] visitedPerTimestep ETV
vector 58 TaxiNetwork.node[67] visitedPerTimestep ETV
vector 59 TaxiNetwork.node[65] visitedPerTimestep ETV
vector 60 TaxiNetwork.node[143] visitedPerTimestep ETV
vector 61 TaxiNetwork.node[60] visitedPerTimestep ETV
vector 62 TaxiNetwork.node[72] visitedPerTimestep ETV
vector 63 TaxiNetwork.node[68] visitedPerTimestep ETV
vector 64 TaxiNetwork.node[134] visitedPerTimestep ETV
vector 65 TaxiNetwork.node[4] visitedPerTimestep ETV
vector 66 TaxiNetwork.node[122] visitedPerTimestep ETV
vector 67 TaxiNetwork.node[52] visitedPerTimestep ETV
vector 68 TaxiNetwork.node[94] visitedPerTimestep ETV
vector 69 TaxiNetwork.node[128] visitedPerTimestep ETV
vector 70 TaxiNetwork.node[64] visitedPerTimestep ETV
vector 71 TaxiNetwork.node[73] visitedPerTimestep ETV
vector 72 TaxiNetwork.node[77] visitedPerTimestep ETV
vector 73 TaxiNetwork.node[14] visitedPerTimestep ETV
vector 74 TaxiNetwork.node[13] visitedPerTimestep ETV
vector 75 TaxiNetwork.node[55] visitedPerTimestep ETV
vector 76 TaxiNetwork.node[82] visitedPerTimestep ETV
vector 77 TaxiNetwork.node[103] visitedPerTimestep ETV
vector 78 TaxiNetwork.node[131] visitedPerTimestep ETV
vector 79 TaxiNetwork.node[132] visitedPerTimestep ETV
vector 80 TaxiNetwork.node[110] visitedPerTimestep ETV
vector 81 TaxiNetwork.node[29] visitedPerTimestep ETV
vector 82 TaxiNetwork.node[35] visitedPerTimestep ETV
vector 83 TaxiNetwork.node[26] visitedPerTimestep ETV
vector 84 TaxiNetwork.node[28] visitedPerTimestep ETV
vector 85 TaxiNetwork.node[21] visitedPerTimestep ETV
vector 86 TaxiNetwork.node[54] visitedPerTimestep ETV
vector 87 TaxiNetwork.node[101] visitedPerTimestep ETV
vector 88 TaxiNetwork.node[121] visitedPerTimestep ETV
vector 89 TaxiNetwork.node[129] visitedPerTimestep ETV
vector 90 TaxiNetwork.node[61] visitedPerTimestep ETV
vector 91 TaxiNetwork.node[66] visitedPerTimestep ETV
vector 92 TaxiNetwork.node[62] visitedPerTimestep ETV
vector 93 TaxiNetwork.node[79] visitedPerTimestep ETV
vector 94 TaxiNetwork.node[70] visitedPerTimestep ETV
vector 95 TaxiNetwork.node[63] visitedPerTimestep ETV
vector 96 TaxiNetwork.node[93] visitedPerTimestep ETV
vector 97 TaxiNetwork.node[37] visitedPerTimestep ETV
vector 98 TaxiNetwork.node[40] visitedPerTimestep ETV
vector 99 TaxiNetwork.node[27] visitedPerTimestep ETV
vector 100 TaxiNetwork.node[24] visitedPerTimestep ETV
vector 101 TaxiNetwork.node[34] visitedPerTimestep ETV
vector 102 TaxiNetwork.node[113] visitedPerTimestep ETV
vector 103 TaxiNetwork.node[74] visitedPerTimestep ETV
vector 104 TaxiNetwork.node[108] visitedPerTimestep ETV
vector 105 TaxiNetwork.node[109] visitedPerTimestep ETV
vector 106 TaxiNetwork.node[41] visitedPerTimestep ETV
vector 107 TaxiNetwork.node[43] visitedPerTimestep ETV
vector 108 TaxiNetwork.node[42] visitedPerTimestep ETV
vector 109 TaxiNetwork.node[38] visitedPerTimestep ETV
vector 110 TaxiNetwork.node[23] visitedPerTimestep ETV
vector 111 TaxiNetwork.node[118] visitedPerTimestep ETV
vector 112 TaxiNetwork.node[58] visitedPerTimestep ETV
vector 113 TaxiNetwork.node[119] visitedPerTimestep ETV
vector 114 TaxiNetwork.node[105] visitedPerTimestep ETV
vector 115 TaxiNetwork.node[136] visitedPerTimestep ETV
vector 116 TaxiNetwork.node[48] visitedPerTimestep ETV
vector 117 TaxiNetwork.node[47] visitedPerTimestep ETV
vector 118 TaxiNetwork.node[135] visitedPerTimestep ETV
vector 119 TaxiNetwork.node[144] visitedPerTimestep ETV
vector 120 TaxiNetwork.node[51] visitedPerTimestep ETV
vector 121 TaxiNetwork.node[98] visitedPerTimestep ETV
vector 122 TaxiNetwork.node[50] visitedPerTimestep ETV
vector 123 TaxiNetwork.node[49] visitedPerTimestep ETV
vector 124 TaxiNetwork.node[56] visitedPerTimestep ETV
vector 125 TaxiNetwork.node[53] visitedPerTimestep ETV
vector 126 TaxiNetwork.node[69] visitedPerTimestep ETV
vector 127 TaxiNetwork.node[133] visitedPerTimestep ETV
vector 128 TaxiNetwork.node[25] visitedPerTimestep ETV
vector 129 TaxiNetwork.node[99] visitedPerTimestep ETV
vector 130 TaxiNetwork.node[78] visitedPerTimestep ETV
vector 131 TaxiNetwork.node[126] visitedPerTimestep ETV
vector 132 TaxiNetwork.node[75] visitedPerTimestep ETV
vector 133 TaxiNetwork.node[130] visitedPerTimestep ETV
vector 134 TaxiNetwork.node[95] visitedPerTimestep ETV
vector 135 TaxiNetwork.node[71] visitedPerTimestep ETV
vector 136 TaxiNetwork.node[76] visitedPerTimestep ETV
vector 137 TaxiNetwork.node[80] visitedPerTimestep ETV
vector 138 TaxiNetwork.node[124] visitedPerTimestep ETV
vector 139 TaxiNetwork.node[127] visitedPerTimestep ETV
0	16698 299 1 11368 0 0 24 1 144 3002 400642
1	16997 241 2 13704 0 0 19 2 144 2429 334605
2	17238 169 3 11400 0 0 14 3 144 1598 213194
3	17407 111 4 13568 0 0 9 4 144 1022 141620
4	17518 319 6 13664 0 0 25 5 144 3306 456640
5	17837 494 7 13176 0 0 39 6 144 5015 676009
6	18331 629 8 13784 0 0 50 7 144 6473 874291
7	18960 556 9 13024 0 0 44 8 144 5703 773517
8	19516 625 10 13760 0 0 49 9 144 6428 881916
9	20141 717 11 13624 0 0 56 10 144 7490 1028340
10	20858 553 12 13728 0 0 41 11 144 5044 667832
11	21411 596 13 12936 0 0 44 12 144 5557 729329
12	22007 475 14 13408 0 0 35 13 144 4394 597860
13	22482 643 15 12072 0 0 47 14 144 6175 833377
14	23125 516 16 13368 0 0 38 15 144 4742 629790
15	23641 774 17 13776 0 0 56 16 144 7496 1029350
16	24415 397 19 13056 0 0 29 17 144 3769 514077
17	24812 796 20 13160 0 0 58 18 144 7620 1040498
18	25608 734 21 13680 0 0 53 19 144 7107 976535
19	26342 655 22 11952 0 0 48 20 144 6242 840148
20	26997 694 25 13040 0 0 51 21 144 6628 898090
21	27691 637 26 12200 0 0 46 22 144 6077 838847
22	28328 610 27 13768 0 0 44 23 144 5909 810013
23	28938 737 31 13448 0 0 54 24 144 7022 943122
24	29675 429 32 13656 0 0 31 25 144 4051 554935
25	30104 536 34 13744 0 0 40 26 144 4904 638684
26	30640 687 35 12776 0 0 50 27 144 6599 895033
27	31327 465 37 12992 0 0 34 28 144 4388 592880
28	31792 646 38 13392 0 0 47 29 144 6204 843624
29	32438 829 39 13792 0 0 60 30 144 7930 1083610
30	33267 321 41 13648 0 0 23 31 144 3029 412539
31	33588 354 42 12128 0 0 26 32 144 3403 459211
32	33942 690 43 12264 0 0 50 33 144 6661 910497
33	34632 639 44 13240 0 0 47 34 144 6055 814527
34	35271 571 45 12800 0 0 42 35 144 5459 732031
35	35842 616 46 13608 0 0 45 36 144 5899 793579
36	36458 580 47 13592 0 0 42 37 144 5582 764144
37	37038 630 49 11968 0 0 46 38 144 6089 831231
38	37668 756 52 13360 0 0 55 39 144 7200 973424
39	38424 491 53 12976 0 0 36 40 144 4563 605775
40	38915 734 54 13752 0 0 53 41 144 7110 973848
41	39649 477 55 13232 0 0 35 42 144 4531 604049
42	40126 667 56 13616 0 0 49 43 144 6227 821299
43	40793 582 57 10832 0 0 43 44 144 5484 730540
44	41375 793 58 13712 0 0 58 45 144 7558 1011852
45	42168 465 60 13184 0 0 34 46 144 4439 595221
46	42633 609 63 13336 0 0 45 47 144 5750 765680
47	43242 736 64 13000 0 0 53 48 144 7230 998404
48	43978 566 65 13264 0 0 42 49 144 5284 693340
49	44544 765 66 13192 0 0 55 50 144 7511 1039239
50	45309 688 71 13800 0 0 50 51 144 6554 879346
51	45997 766 72 13488 0 0 56 52 144 7282 978414
52	46763 341 75 13400 0 0 25 53 144 3225 431999
53	47104 270 76 12848 0 0 20 54 144 2568 340032
54	47374 852 79 13584 0 0 62 55 144 8152 1096510
55	48226 705 81 13504 0 0 52 56 144 6737 895679
56	48931 289 90 11880 0 0 21 57 144 2815 384597
57	49220 505 92 13208 0 0 37 58 144 4743 630431
58	49725 232 108 12680 0 0 17 59 144 2118 276570
59	49957 184 109 10496 0 0 13 60 144 1770 247450
60	50141 238 110 12624 0 0 17 61 144 2201 296121
61	50379 207 111 12464 0 0 15 62 144 1954 264428
62	50586 225 112 12736 0 0 16 63 144 2093 283343
63	50811 157 113 12752 0 0 11 64 144 1485 206115
64	50968 83 114 10368 0 0 6 65 144 773 104495
65	51051 731 118 13496 0 0 53 66 144 7045 955231
66	51782 664 121 12768 0 0 49 67 144 6243 820601
67	52446 613 126 13520 0 0 44 68 144 5990 824630
68	53059 508 130 12792 0 0 37 69 144 4815 642095
69	53567 210 139 12640 0 0 15 70 144 2048 284650
70	53777 271 141 12688 0 0 19 71 144 2597 360067
71	54048 113 142 12488 0 0 8 72 144 1064 145874
72	54161 214 143 12744 0 0 15 73 144 2046 283666
73	54375 762 163 13808 0 0 55 74 145 7442 1019778
74	55137 661 173 12040 0 0 48 75 144 6436 872970
75	55798 512 175 13272 0 0 37 76 144 5003 682981
76	56310 414 176 13304 0 0 30 77 144 3960 533618
77	56724 760 179 11528 0 0 55 78 144 7484 1028934
78	57484 324 180 11144 0 0 24 79 144 3054 400242
79	57808 244 181 12392 0 0 18 80 144 2307 306145
80	58052 207 183 12760 0 0 15 81 144 1990 269674
81	58259 239 203 13328 0 0 17 82 144 2328 323536
82	58498 203 204 13296 0 0 15 83 144 1951 258335
83	58701 137 205 9640 0 0 10 84 144 1319 178189
84	58838 107 206 6456 0 0 8 85 144 1008 130390
85	58945 181 207 13064 0 0 13 86 144 1759 241141
86	59126 607 215 13080 0 0 44 87 144 5898 800400
87	59733 596 227 13344 0 0 43 88 144 5787 787129
88	60329 382 235 12728 0 0 27 89 144 3713 515501
89	60711 172 236 12576 0 0 12 90 144 1665 233635
90	60883 308 240 12672 0 0 22 91 144 3007 415445
91	61191 247 241 12344 0 0 18 92 144 2393 323747
92	61438 241 242 12520 0 0 17 93 144 2337 323967
93	61679 209 244 12456 0 0 15 94 144 2045 281177
94	61888 197 245 12384 0 0 14 95 144 1939 270693
95	62085 156 246 12632 0 0 11 96 144 1517 211235
96	62241 815 266 13320 0 0 59 97 144 7941 1079401
97	63056 246 307 11928 0 0 18 98 144 2379 319087
98	63302 234 309 12872 0 0 17 99 144 2304 314628
99	63536 222 328 12880 0 0 16 100 144 2213 308153
100	63758 120 354 11872 0 0 8 101 144 1088 149632
101	63878 243 360 13128 0 0 16 102 144 2239 315085
102	64121 148 372 13640 0 0 10 103 144 1338 181110
103	64269 103 422 10792 0 0 7 104 144 891 114683
104	64372 112 423 988 0 0 8 105 129 887 98753
105	64484 70 424 991 0 0 5 106 129 561 63311
106	64554 56 426 989 0 0 4 107 129 454 51860
107	64610 84 429 990 0 0 6 108 129 673 75835
108	64694 28 435 441 0 0 2 109 111 220 24202
109	64722 56 438 987 0 0 4 110 129 479 57703
110	64778 14 439 439 0 0 1 111 111 111 12321
111	64792 512 457 13552 0 0 34 112 144 4739 662367
112	65304 73 472 7784 0 0 5 113 144 666 89438
113	65377 238 474 11416 0 0 16 114 144 2170 295710
114	65615 219 475 10632 0 0 15 115 144 1989 265179
115	65834 189 476 8328 0 0 13 116 144 1709 225993
116	66023 190 477 8320 0 0 13 117 144 1716 227804
117	66213 177 478 8344 0 0 12 118 144 1636 224280
118	66390 114 481 4552 0 0 8 119 143 1011 128173
119	66504 162 482 11904 0 0 11 120 144 1482 200766
120	66666 221 483 8648 0 0 15 121 144 1996 266568
121	66887 43 485 1528 0 0 3 122 132 377 47437
122	66930 73 486 4540 0 0 5 123 143 653 85555
123	67003 103 508 8336 0 0 7 124 144 942 127234
124	67106 193 551 13672 0 0 13 125 144 1786 246092
125	67299 579 586 13384 0 0 39 126 144 5372 741960
126	67878 213 936 12664 0 0 14 127 144 1946 270958
127	68091 442 940 12592 0 0 29 128 144 4099 579867
128	68533 28 984 986 0 0 2 129 129 258 33282
129	68561 198 1194 11240 0 0 13 130 144 1845 262027
130	68759 141 1218 12600 0 0 9 131 144 1276 181082
131	68900 169 1224 12720 0 0 11 132 144 1558 220856
132	69069 166 1674 10456 0 0 11 133 144 1546 217454
133	69235 165 1682 6740 0 0 11 134 144 1546 217416
134	69400 15 1720 1720 0 0 1 135 135 135 18225
135	69415 30 1722 6888 0 0 2 136 144 280 39232
136	69445 45 1724 6892 0 0 3 137 144 420 58826
137	69490 136 1738 10416 0 0 9 138 144 1278 181514
138	69626 76 1740 11248 0 0 5 139 144 712 101406
139	69702 15 2938 2938 0 0 1 143 143 143 20449

