version 3
run General-73-20250904-14:13:13-15321
attr configname General
attr datetime 20250904-14:13:13
attr datetimef 20250904-141313
attr experiment General
attr inifile omnetpp.ini
attr iterationvars ""
attr iterationvarsd ""
attr iterationvarsf ""
attr measurement ""
attr network TaxiNetwork
attr processid 15321
attr repetition 73
attr replication #73
attr resultdir results
attr runnumber 73
attr seedset 73
config network TaxiNetwork
config seed-set 73
config num-rngs 1
config sim-time-limit 10s
config repeat 500
config *.numWalkers 1
config *.enableDuplication true
config *.rc 700
config **.node[0].xCor 2933
config **.node[0].yCor 2747
config **.node[1].xCor 2919
config **.node[1].yCor 2817
config **.node[2].xCor 2910
config **.node[2].yCor 2861
config **.node[3].xCor 2429
config **.node[3].yCor 2851
config **.node[4].xCor 2908
config **.node[4].yCor 2714
config **.node[5].xCor 2606
config **.node[5].yCor 2722
config **.node[6].xCor 2575
config **.node[6].yCor 2753
config **.node[7].xCor 2654
config **.node[7].yCor 2513
config **.node[8].xCor 2773
config **.node[8].yCor 2580
config **.node[9].xCor 3043
config **.node[9].yCor 2780
config **.node[10].xCor 3020
config **.node[10].yCor 2813
config **.node[11].xCor 2599
config **.node[11].yCor 2300
config **.node[12].xCor 2917
config **.node[12].yCor 2698
config **.node[13].xCor 2625
config **.node[13].yCor 2641
config **.node[14].xCor 2604
config **.node[14].yCor 2790
config **.node[15].xCor 2786
config **.node[15].yCor 3082
config **.node[16].xCor 2603
config **.node[16].yCor 2802
config **.node[17].xCor 2637
config **.node[17].yCor 2869
config **.node[18].xCor 2675
config **.node[18].yCor 2955
config **.node[19].xCor 2845
config **.node[19].yCor 2937
config **.node[20].xCor 2860
config **.node[20].yCor 2888
config **.node[21].xCor 2843
config **.node[21].yCor 4158
config **.node[22].xCor 2852
config **.node[22].yCor 4017
config **.node[23].xCor 2892
config **.node[23].yCor 4961
config **.node[24].xCor 2313
config **.node[24].yCor 3993
config **.node[25].xCor 2891
config **.node[25].yCor 4959
config **.node[26].xCor 2370
config **.node[26].yCor 4050
config **.node[27].xCor 2788
config **.node[27].yCor 3958
config **.node[28].xCor 2819
config **.node[28].yCor 4428
config **.node[29].xCor 2790
config **.node[29].yCor 3761
config **.node[30].xCor 2809
config **.node[30].yCor 2908
config **.node[31].xCor 2919
config **.node[31].yCor 3575
config **.node[32].xCor 2946
config **.node[32].yCor 3466
config **.node[33].xCor 2911
config **.node[33].yCor 3453
config **.node[34].xCor 2370
config **.node[34].yCor 3656
config **.node[35].xCor 2438
config **.node[35].yCor 3738
config **.node[36].xCor 2737
config **.node[36].yCor 3570
config **.node[37].xCor 2921
config **.node[37].yCor 3698
config **.node[38].xCor 2907
config **.node[38].yCor 5197
config **.node[39].xCor 2860
config **.node[39].yCor 3852
config **.node[40].xCor 2927
config **.node[40].yCor 3684
config **.node[41].xCor 3023
config **.node[41].yCor 5313
config **.node[42].xCor 3220
config **.node[42].yCor 5811
config **.node[43].xCor 3432
config **.node[43].yCor 5715
config **.node[44].xCor 2754
config **.node[44].yCor 2463
config **.node[45].xCor 2646
config **.node[45].yCor 2673
config **.node[46].xCor 3051
config **.node[46].yCor 2792
config **.node[47].xCor 1666
config **.node[47].yCor 3697
config **.node[48].xCor 1662
config **.node[48].yCor 3694
config **.node[49].xCor 1664
config **.node[49].yCor 3667
config **.node[50].xCor 1660
config **.node[50].yCor 3664
config **.node[51].xCor 1710
config **.node[51].yCor 3573
config **.node[52].xCor 2082
config **.node[52].yCor 2650
config **.node[53].xCor 2086
config **.node[53].yCor 2657
config **.node[54].xCor 2257
config **.node[54].yCor 3232
config **.node[55].xCor 2258
config **.node[55].yCor 3225
config **.node[56].xCor 1926
config **.node[56].yCor 2570
config **.node[57].xCor 1926
config **.node[57].yCor 2576
config **.node[58].xCor 2104
config **.node[58].yCor 1758
config **.node[59].xCor 1957
config **.node[59].yCor 1826
config **.node[60].xCor 3473
config **.node[60].yCor 1523
config **.node[61].xCor 3335
config **.node[61].yCor 1726
config **.node[62].xCor 3478
config **.node[62].yCor 1517
config **.node[63].xCor 3386
config **.node[63].yCor 2119
config **.node[64].xCor 3474
config **.node[64].yCor 1762
config **.node[65].xCor 3797
config **.node[65].yCor 2099
config **.node[66].xCor 3642
config **.node[66].yCor 2136
config **.node[67].xCor 3481
config **.node[67].yCor 2334
config **.node[68].xCor 3088
config **.node[68].yCor 1505
config **.node[69].xCor 3037
config **.node[69].yCor 1693
config **.node[70].xCor 3026
config **.node[70].yCor 1700
config **.node[71].xCor 3019
config **.node[71].yCor 669
config **.node[72].xCor 3513
config **.node[72].yCor 1358
config **.node[73].xCor 3545
config **.node[73].yCor 1230
config **.node[74].xCor 4228
config **.node[74].yCor 4220
config **.node[75].xCor 3379
config **.node[75].yCor 1207
config **.node[76].xCor 3596
config **.node[76].yCor 963
config **.node[77].xCor 3637
config **.node[77].yCor 1188
config **.node[78].xCor 3759
config **.node[78].yCor 1030
config **.node[79].xCor 2918
config **.node[79].yCor 1455
config **.node[80].xCor 2711
config **.node[80].yCor 1297
config **.node[81].xCor 439
config **.node[81].yCor 1623
config **.node[82].xCor 2857
config **.node[82].yCor 3581
config **.node[83].xCor 2858
config **.node[83].yCor 3584
config **.node[84].xCor 2999
config **.node[84].yCor 2636
config **.node[85].xCor 2905
config **.node[85].yCor 2778
config **.node[86].xCor 2653
config **.node[86].yCor 2845
config **.node[87].xCor 2864
config **.node[87].yCor 2836
config **.node[88].xCor 2426
config **.node[88].yCor 2892
config **.node[89].xCor 2964
config **.node[89].yCor 2804
config **.node[90].xCor 2586
config **.node[90].yCor 3135
config **.node[91].xCor 2864
config **.node[91].yCor 2980
config **.node[92].xCor 2527
config **.node[92].yCor 3219
config **.node[93].xCor 2863
config **.node[93].yCor 3142
config **.node[94].xCor 2485
config **.node[94].yCor 3269
config **.node[95].xCor 2653
config **.node[95].yCor 1065
config **.node[96].xCor 4062
config **.node[96].yCor 400
config **.node[97].xCor 5762
config **.node[97].yCor 3023
config **.node[98].xCor 1414
config **.node[98].yCor 3461
config **.node[99].xCor 2911
config **.node[99].yCor 1737
config **.node[100].xCor 2595
config **.node[100].yCor 2299
config **.node[101].xCor 2702
config **.node[101].yCor 3419
config **.node[102].xCor 2813
config **.node[102].yCor 3307
config **.node[103].xCor 2638
config **.node[103].yCor 2258
config **.node[104].xCor 2590
config **.node[104].yCor 3125
config **.node[105].xCor 1856
config **.node[105].yCor 2990
config **.node[106].xCor 1894
config **.node[106].yCor 2239
config **.node[107].xCor 383
config **.node[107].yCor 1251
config **.node[108].xCor 3447
config **.node[108].yCor 5489
config **.node[109].xCor 3450
config **.node[109].yCor 5697
config **.node[110].xCor 2719
config **.node[110].yCor 1920
config **.node[111].xCor 2085
config **.node[111].yCor 2389
config **.node[112].xCor 1910
config **.node[112].yCor 2548
config **.node[113].xCor 2069
config **.node[113].yCor 2050
config **.node[114].xCor 2184
config **.node[114].yCor 2209
config **.node[115].xCor 2278
config **.node[115].yCor 2390
config **.node[116].xCor 2249
config **.node[116].yCor 2299
config **.node[117].xCor 2356
config **.node[117].yCor 2303
config **.node[118].xCor 2192
config **.node[118].yCor 2475
config **.node[119].xCor 1720
config **.node[119].yCor 2911
config **.node[120].xCor 2400
config **.node[120].yCor 2887
config **.node[121].xCor 3344
config **.node[121].yCor 1890
config **.node[122].xCor 3136
config **.node[122].yCor 2418
config **.node[123].xCor 3243
config **.node[123].yCor 2525
config **.node[124].xCor 2396
config **.node[124].yCor 1267
config **.node[125].xCor 467
config **.node[125].yCor 1875
config **.node[126].xCor 3506
config **.node[126].yCor 1221
config **.node[127].xCor 1034
config **.node[127].yCor 1474
config **.node[128].xCor 2908
config **.node[128].yCor 1784
config **.node[129].xCor 2876
config **.node[129].yCor 1761
config **.node[130].xCor 2849
config **.node[130].yCor 1795
config **.node[131].xCor 3029
config **.node[131].yCor 1859
config **.node[132].xCor 2924
config **.node[132].yCor 1848
config **.node[133].xCor 3493
config **.node[133].yCor 1559
config **.node[134].xCor 2760
config **.node[134].yCor 1761
config **.node[135].xCor 1644
config **.node[135].yCor 3755
config **.node[136].xCor 1463
config **.node[136].yCor 3432
config **.node[137].xCor 2595
config **.node[137].yCor 2849
config **.node[138].xCor 2581
config **.node[138].yCor 2867
config **.node[139].xCor 2524
config **.node[139].yCor 2911
config **.node[140].xCor 2570
config **.node[140].yCor 2924
config **.node[141].xCor 2676
config **.node[141].yCor 2890
config **.node[142].xCor 2666
config **.node[142].yCor 2876
config **.node[143].xCor 3735
config **.node[143].yCor 1726
config **.node[144].xCor 1637
config **.node[144].yCor 3438

vector 0 TaxiNetwork.node[45] visitedPerTimestep ETV
vector 1 TaxiNetwork.node[18] visitedPerTimestep ETV
vector 2 TaxiNetwork.node[101] visitedPerTimestep ETV
vector 3 TaxiNetwork.node[19] visitedPerTimestep ETV
vector 4 TaxiNetwork.node[16] visitedPerTimestep ETV
vector 5 TaxiNetwork.node[8] visitedPerTimestep ETV
vector 6 TaxiNetwork.node[3] visitedPerTimestep ETV
vector 7 TaxiNetwork.node[1] visitedPerTimestep ETV
vector 8 TaxiNetwork.node[104] visitedPerTimestep ETV
vector 9 TaxiNetwork.node[7] visitedPerTimestep ETV
vector 10 TaxiNetwork.node[91] visitedPerTimestep ETV
vector 11 TaxiNetwork.node[87] visitedPerTimestep ETV
vector 12 TaxiNetwork.node[137] visitedPerTimestep ETV
vector 13 TaxiNetwork.node[141] visitedPerTimestep ETV
vector 14 TaxiNetwork.node[100] visitedPerTimestep ETV
vector 15 TaxiNetwork.node[118] visitedPerTimestep ETV
vector 16 TaxiNetwork.node[139] visitedPerTimestep ETV
vector 17 TaxiNetwork.node[115] visitedPerTimestep ETV
vector 18 TaxiNetwork.node[140] visitedPerTimestep ETV
vector 19 TaxiNetwork.node[44] visitedPerTimestep ETV
vector 20 TaxiNetwork.node[102] visitedPerTimestep ETV
vector 21 TaxiNetwork.node[90] visitedPerTimestep ETV
vector 22 TaxiNetwork.node[12] visitedPerTimestep ETV
vector 23 TaxiNetwork.node[9] visitedPerTimestep ETV
vector 24 TaxiNetwork.node[84] visitedPerTimestep ETV
vector 25 TaxiNetwork.node[123] visitedPerTimestep ETV
vector 26 TaxiNetwork.node[14] visitedPerTimestep ETV
vector 27 TaxiNetwork.node[74] visitedPerTimestep ETV
vector 28 TaxiNetwork.node[109] visitedPerTimestep ETV
vector 29 TaxiNetwork.node[108] visitedPerTimestep ETV
vector 30 TaxiNetwork.node[43] visitedPerTimestep ETV
vector 31 TaxiNetwork.node[41] visitedPerTimestep ETV
vector 32 TaxiNetwork.node[42] visitedPerTimestep ETV
vector 33 TaxiNetwork.node[38] visitedPerTimestep ETV
vector 34 TaxiNetwork.node[23] visitedPerTimestep ETV
vector 35 TaxiNetwork.node[25] visitedPerTimestep ETV
vector 36 TaxiNetwork.node[28] visitedPerTimestep ETV
vector 37 TaxiNetwork.node[22] visitedPerTimestep ETV
vector 38 TaxiNetwork.node[27] visitedPerTimestep ETV
vector 39 TaxiNetwork.node[36] visitedPerTimestep ETV
vector 40 TaxiNetwork.node[88] visitedPerTimestep ETV
vector 41 TaxiNetwork.node[46] visitedPerTimestep ETV
vector 42 TaxiNetwork.node[0] visitedPerTimestep ETV
vector 43 TaxiNetwork.node[20] visitedPerTimestep ETV
vector 44 TaxiNetwork.node[11] visitedPerTimestep ETV
vector 45 TaxiNetwork.node[132] visitedPerTimestep ETV
vector 46 TaxiNetwork.node[61] visitedPerTimestep ETV
vector 47 TaxiNetwork.node[131] visitedPerTimestep ETV
vector 48 TaxiNetwork.node[103] visitedPerTimestep ETV
vector 49 TaxiNetwork.node[6] visitedPerTimestep ETV
vector 50 TaxiNetwork.node[89] visitedPerTimestep ETV
vector 51 TaxiNetwork.node[94] visitedPerTimestep ETV
vector 52 TaxiNetwork.node[105] visitedPerTimestep ETV
vector 53 TaxiNetwork.node[93] visitedPerTimestep ETV
vector 54 TaxiNetwork.node[30] visitedPerTimestep ETV
vector 55 TaxiNetwork.node[33] visitedPerTimestep ETV
vector 56 TaxiNetwork.node[15] visitedPerTimestep ETV
vector 57 TaxiNetwork.node[55] visitedPerTimestep ETV
vector 58 TaxiNetwork.node[120] visitedPerTimestep ETV
vector 59 TaxiNetwork.node[70] visitedPerTimestep ETV
vector 60 TaxiNetwork.node[110] visitedPerTimestep ETV
vector 61 TaxiNetwork.node[13] visitedPerTimestep ETV
vector 62 TaxiNetwork.node[114] visitedPerTimestep ETV
vector 63 TaxiNetwork.node[5] visitedPerTimestep ETV
vector 64 TaxiNetwork.node[21] visitedPerTimestep ETV
vector 65 TaxiNetwork.node[26] visitedPerTimestep ETV
vector 66 TaxiNetwork.node[24] visitedPerTimestep ETV
vector 67 TaxiNetwork.node[35] visitedPerTimestep ETV
vector 68 TaxiNetwork.node[17] visitedPerTimestep ETV
vector 69 TaxiNetwork.node[86] visitedPerTimestep ETV
vector 70 TaxiNetwork.node[56] visitedPerTimestep ETV
vector 71 TaxiNetwork.node[112] visitedPerTimestep ETV
vector 72 TaxiNetwork.node[142] visitedPerTimestep ETV
vector 73 TaxiNetwork.node[52] visitedPerTimestep ETV
vector 74 TaxiNetwork.node[57] visitedPerTimestep ETV
vector 75 TaxiNetwork.node[63] visitedPerTimestep ETV
vector 76 TaxiNetwork.node[69] visitedPerTimestep ETV
vector 77 TaxiNetwork.node[79] visitedPerTimestep ETV
vector 78 TaxiNetwork.node[62] visitedPerTimestep ETV
vector 79 TaxiNetwork.node[64] visitedPerTimestep ETV
vector 80 TaxiNetwork.node[75] visitedPerTimestep ETV
vector 81 TaxiNetwork.node[72] visitedPerTimestep ETV
vector 82 TaxiNetwork.node[60] visitedPerTimestep ETV
vector 83 TaxiNetwork.node[68] visitedPerTimestep ETV
vector 84 TaxiNetwork.node[121] visitedPerTimestep ETV
vector 85 TaxiNetwork.node[80] visitedPerTimestep ETV
vector 86 TaxiNetwork.node[129] visitedPerTimestep ETV
vector 87 TaxiNetwork.node[71] visitedPerTimestep ETV
vector 88 TaxiNetwork.node[85] visitedPerTimestep ETV
vector 89 TaxiNetwork.node[10] visitedPerTimestep ETV
vector 90 TaxiNetwork.node[92] visitedPerTimestep ETV
vector 91 TaxiNetwork.node[29] visitedPerTimestep ETV
vector 92 TaxiNetwork.node[40] visitedPerTimestep ETV
vector 93 TaxiNetwork.node[31] visitedPerTimestep ETV
vector 94 TaxiNetwork.node[39] visitedPerTimestep ETV
vector 95 TaxiNetwork.node[34] visitedPerTimestep ETV
vector 96 TaxiNetwork.node[37] visitedPerTimestep ETV
vector 97 TaxiNetwork.node[2] visitedPerTimestep ETV
vector 98 TaxiNetwork.node[53] visitedPerTimestep ETV
vector 99 TaxiNetwork.node[116] visitedPerTimestep ETV
vector 100 TaxiNetwork.node[83] visitedPerTimestep ETV
vector 101 TaxiNetwork.node[82] visitedPerTimestep ETV
vector 102 TaxiNetwork.node[138] visitedPerTimestep ETV
vector 103 TaxiNetwork.node[67] visitedPerTimestep ETV
vector 104 TaxiNetwork.node[124] visitedPerTimestep ETV
vector 105 TaxiNetwork.node[128] visitedPerTimestep ETV
vector 106 TaxiNetwork.node[4] visitedPerTimestep ETV
vector 107 TaxiNetwork.node[113] visitedPerTimestep ETV
vector 108 TaxiNetwork.node[106] visitedPerTimestep ETV
vector 109 TaxiNetwork.node[54] visitedPerTimestep ETV
vector 110 TaxiNetwork.node[117] visitedPerTimestep ETV
vector 111 TaxiNetwork.node[32] visitedPerTimestep ETV
vector 112 TaxiNetwork.node[111] visitedPerTimestep ETV
vector 113 TaxiNetwork.node[119] visitedPerTimestep ETV
vector 114 TaxiNetwork.node[58] visitedPerTimestep ETV
vector 115 TaxiNetwork.node[134] visitedPerTimestep ETV
vector 116 TaxiNetwork.node[99] visitedPerTimestep ETV
vector 117 TaxiNetwork.node[126] visitedPerTimestep ETV
vector 118 TaxiNetwork.node[122] visitedPerTimestep ETV
vector 119 TaxiNetwork.node[66] visitedPerTimestep ETV
vector 120 TaxiNetwork.node[130] visitedPerTimestep ETV
vector 121 TaxiNetwork.node[78] visitedPerTimestep ETV
vector 122 TaxiNetwork.node[76] visitedPerTimestep ETV
vector 123 TaxiNetwork.node[77] visitedPerTimestep ETV
vector 124 TaxiNetwork.node[143] visitedPerTimestep ETV
vector 125 TaxiNetwork.node[65] visitedPerTimestep ETV
vector 126 TaxiNetwork.node[133] visitedPerTimestep ETV
vector 127 TaxiNetwork.node[73] visitedPerTimestep ETV
vector 128 TaxiNetwork.node[127] visitedPerTimestep ETV
vector 129 TaxiNetwork.node[51] visitedPerTimestep ETV
vector 130 TaxiNetwork.node[136] visitedPerTimestep ETV
vector 131 TaxiNetwork.node[144] visitedPerTimestep ETV
vector 132 TaxiNetwork.node[47] visitedPerTimestep ETV
vector 133 TaxiNetwork.node[50] visitedPerTimestep ETV
vector 134 TaxiNetwork.node[48] visitedPerTimestep ETV
vector 135 TaxiNetwork.node[135] visitedPerTimestep ETV
vector 136 TaxiNetwork.node[49] visitedPerTimestep ETV
vector 137 TaxiNetwork.node[59] visitedPerTimestep ETV
vector 138 TaxiNetwork.node[125] visitedPerTimestep ETV
vector 139 TaxiNetwork.node[98] visitedPerTimestep ETV
vector 140 TaxiNetwork.node[81] visitedPerTimestep ETV
vector 141 TaxiNetwork.node[95] visitedPerTimestep ETV
0	1	0	1
0	65	0	42
0	69	0	43
0	85	0	53
0	249	0	100
0	321	0	106
0	375	0	111
0	401	0	113
0	415	0	113
0	522	0	114
0	576	0	118
0	597	0	119
0	987	0	129
0	1238	0	135
0	1352	0	137
0	1500	0	137
0	1522	0	137
0	1546	0	137
0	1806	0	141
0	1838	0	141
0	1998	0	141
0	2428	0	141
0	2460	0	141
0	3852	0	142
0	3864	0	142
0	4180	0	142
0	4512	0	142
0	4792	0	142
0	5024	0	143
0	5124	0	143
0	5180	0	143
0	5440	0	143
0	6728	0	143
0	7312	0	143
0	7816	0	143
0	10640	0	143
0	11056	0	144
0	11952	0	144
0	13160	0	144
0	13608	0	144
0	13952	0	144
0	15592	0	144
0	16072	0	144
0	16248	0	144
0	17048	0	144
0	17464	0	144
0	17800	0	144
0	19608	0	144
0	21496	0	144
1	2	0	2
1	27	0	21
1	113	0	63
1	115	0	63
1	252	0	100
1	387	0	112
1	446	0	114
1	620	0	119
1	636	0	119
1	727	0	128
1	796	0	128
1	845	0	128
1	969	0	129
1	1210	0	133
1	1374	0	137
1	1390	0	137
1	1652	0	140
1	1760	0	141
1	1798	0	141
1	2092	0	141
1	2306	0	141
1	3020	0	141
1	3092	0	142
1	3224	0	142
1	3304	0	142
1	3328	0	142
1	3980	0	142
1	4056	0	142
1	4100	0	142
1	4432	0	142
1	5004	0	143
1	5148	0	143
1	5344	0	143
1	6000	0	143
1	6096	0	143
1	6308	0	143
1	6396	0	143
1	7056	0	143
1	8136	0	143
1	9328	0	143
1	9512	0	143
1	11016	0	144
1	11512	0	144
1	12192	0	144
1	13168	0	144
1	13264	0	144
1	13648	0	144
1	13664	0	144
1	13792	0	144
1	13976	0	144
1	17592	0	144
2	3	0	3
2	9	0	8
2	140	0	70
2	212	0	92
2	219	0	95
2	223	0	96
2	356	0	110
2	408	0	113
2	457	0	114
2	588	0	118
2	745	0	128
2	795	0	128
2	829	0	128
2	1432	0	137
2	1492	0	137
2	1550	0	137
2	2264	0	141
2	2608	0	141
2	3120	0	142
2	3168	0	142
2	3228	0	142
2	3368	0	142
2	4080	0	142
2	4280	0	142
2	4376	0	142
2	4564	0	142
2	5104	0	143
2	5208	0	143
2	5276	0	143
2	5416	0	143
2	5580	0	143
2	5868	0	143
2	5876	0	143
2	6076	0	143
2	6084	0	143
2	7440	0	143
2	7696	0	143
2	8560	0	143
2	8616	0	143
2	10120	0	143
2	12360	0	144
2	12608	0	144
2	13192	0	144
2	15304	0	144
2	15368	0	144
3	4	0	4
3	287	0	102
3	353	0	110
3	359	0	110
3	434	0	114
3	440	0	114
3	598	0	119
3	631	0	119
3	760	0	128
3	781	0	128
3	911	0	128
3	982	0	129
3	991	0	129
3	1054	0	129
3	1438	0	137
3	1986	0	141
3	2244	0	141
3	2596	0	141
3	2612	0	141
3	2744	0	141
3	4028	0	142
3	4888	0	143
3	5120	0	143
3	5216	0	143
3	5264	0	143
3	5336	0	143
3	5420	0	143
3	6620	0	143
3	7240	0	143
3	7272	0	143
3	7600	0	143
3	7680	0	143
3	7784	0	143
3	8552	0	143
3	9088	0	143
3	10704	0	143
3	13136	0	144
3	14000	0	144
3	14776	0	144
3	14928	0	144
4	5	0	5
4	164	0	75
4	461	0	114
4	479	0	114
4	498	0	114
4	584	0	118
4	623	0	119
4	648	0	119
4	729	0	128
4	775	0	128
4	1002	0	129
4	1010	0	129
4	1272	0	135
4	1692	0	140
4	1786	0	141
4	2080	0	141
4	2110	0	141
4	2152	0	141
4	2436	0	141
4	2606	0	141
4	2736	0	141
4	2776	0	141
4	2834	0	141
4	3116	0	142
4	3428	0	142
4	3844	0	142
4	4076	0	142
4	4428	0	142
4	4616	0	142
4	4996	0	143
4	5516	0	143
4	5676	0	143
4	5964	0	143
4	6160	0	143
4	6536	0	143
4	6784	0	143
4	6824	0	143
4	7344	0	143
4	7640	0	143
4	8112	0	143
4	8608	0	143
4	8864	0	143
4	9024	0	143
4	9064	0	143
4	9120	0	143
4	10472	0	143
4	10816	0	144
4	10992	0	144
4	11096	0	144
4	11840	0	144
4	11904	0	144
4	12144	0	144
4	12208	0	144
4	13152	0	144
4	16024	0	144
4	16648	0	144
4	19800	0	144
4	19992	0	144
4	20024	0	144
4	20392	0	144
4	20472	0	144
4	20520	0	144
4	21752	0	144
5	6	0	6
5	62	0	41
5	149	0	73
5	159	0	75
5	233	0	98
5	526	0	114
5	787	0	128
5	798	0	128
5	847	0	128
5	1544	0	137
5	1622	0	140
5	1718	0	141
5	2104	0	141
5	2434	0	141
5	2796	0	141
5	2926	0	141
5	3884	0	142
5	4068	0	142
5	4312	0	142
5	4516	0	142
5	4740	0	142
5	5228	0	143
5	5696	0	143
5	5792	0	143
5	5824	0	143
5	6048	0	143
5	6232	0	143
5	7080	0	143
5	7832	0	143
5	8512	0	143
5	10032	0	143
5	10648	0	143
5	10784	0	143
5	11576	0	144
5	11808	0	144
5	12128	0	144
5	12888	0	144
5	12920	0	144
5	13000	0	144
5	13544	0	144
5	13776	0	144
5	14640	0	144
5	14768	0	144
5	15752	0	144
5	17000	0	144
5	18008	0	144
5	19976	0	144
5	20168	0	144
5	20504	0	144
5	21128	0	144
6	7	0	7
6	23	0	19
6	246	0	100
6	409	0	113
6	433	0	114
6	441	0	114
6	473	0	114
6	612	0	119
6	632	0	119
6	922	0	128
6	1690	0	140
6	1968	0	141
6	2046	0	141
6	2094	0	141
6	2248	0	141
6	2282	0	141
6	2354	0	141
6	2724	0	141
6	2768	0	141
6	2804	0	141
6	2952	0	141
6	2956	0	141
6	3068	0	142
6	4372	0	142
6	4828	0	143
6	5292	0	143
6	6088	0	143
6	6384	0	143
6	6792	0	143
6	7064	0	143
6	8144	0	143
6	8568	0	143
6	8624	0	143
6	8656	0	143
6	8688	0	143
6	8872	0	143
6	9728	0	143
6	10384	0	143
6	11216	0	144
6	11440	0	144
6	12000	0	144
6	12896	0	144
6	13496	0	144
6	13600	0	144
6	13752	0	144
6	14048	0	144
6	14096	0	144
6	14504	0	144
6	15512	0	144
6	16408	0	144
6	16568	0	144
6	21528	0	144
6	22024	0	144
7	8	0	8
7	25	0	20
7	84	0	53
7	200	0	89
7	261	0	101
7	279	0	101
7	352	0	110
7	362	0	110
7	437	0	114
7	508	0	114
7	630	0	119
7	640	0	119
7	765	0	128
7	1416	0	137
7	1476	0	137
7	1636	0	140
7	1660	0	140
7	1792	0	141
7	2064	0	141
7	2310	0	141
7	2614	0	141
7	2718	0	141
7	2730	0	141
7	2764	0	141
7	2920	0	141
7	4196	0	142
7	4232	0	142
7	4284	0	142
7	4368	0	142
7	4492	0	142
7	4724	0	142
7	4748	0	142
7	5008	0	143
7	5196	0	143
7	5772	0	143
7	6112	0	143
7	6244	0	143
7	6316	0	143
7	7584	0	143
7	8056	0	143
7	8784	0	143
7	9256	0	143
7	9632	0	143
7	9936	0	143
7	10744	0	143
7	11152	0	144
7	11680	0	144
7	12512	0	144
7	13456	0	144
7	14904	0	144
7	15192	0	144
7	17032	0	144
7	20536	0	144
8	10	0	9
8	116	0	63
8	120	0	64
8	135	0	70
8	196	0	89
8	210	0	91
8	245	0	100
8	271	0	101
8	298	0	102
8	618	0	119
8	843	0	128
8	921	0	128
8	1288	0	135
8	1502	0	137
8	1864	0	141
8	2016	0	141
8	2068	0	141
8	2130	0	141
8	2280	0	141
8	2352	0	141
8	2618	0	141
8	2826	0	141
8	3140	0	142
8	3496	0	142
8	3964	0	142
8	4160	0	142
8	4184	0	142
8	4412	0	142
8	4904	0	143
8	5468	0	143
8	5624	0	143
8	5924	0	143
8	5940	0	143
8	5948	0	143
8	5996	0	143
8	6172	0	143
8	6540	0	143
8	6600	0	143
8	9168	0	143
8	9432	0	143
8	9624	0	143
8	9696	0	143
8	11736	0	144
8	13288	0	144
8	13336	0	144
8	13464	0	144
8	13480	0	144
8	13744	0	144
8	14088	0	144
8	14840	0	144
8	14888	0	144
8	15736	0	144
8	15800	0	144
8	16616	0	144
8	19512	0	144
8	20952	0	144
9	11	0	10
9	15	0	13
9	19	0	16
9	138	0	70
9	372	0	110
9	444	0	114
9	470	0	114
9	480	0	114
9	482	0	114
9	499	0	114
9	580	0	118
9	733	0	128
9	753	0	128
9	757	0	128
9	983	0	129
9	1044	0	129
9	1232	0	135
9	1362	0	137
9	1386	0	137
9	1406	0	137
9	1542	0	137
9	1892	0	141
9	2108	0	141
9	2162	0	141
9	2330	0	141
9	2418	0	141
9	2456	0	141
9	3156	0	142
9	3376	0	142
9	3600	0	142
9	5436	0	143
9	6492	0	143
9	6800	0	143
9	6840	0	143
9	7672	0	143
9	8048	0	143
9	8800	0	143
9	9464	0	143
9	9744	0	143
9	9888	0	143
9	10984	0	144
9	11072	0	144
9	11544	0	144
9	12528	0	144
9	12840	0	144
9	12944	0	144
9	13104	0	144
9	13736	0	144
9	14656	0	144
9	14792	0	144
9	15400	0	144
9	16376	0	144
9	17624	0	144
10	12	0	11
10	35	0	27
10	68	0	43
10	131	0	69
10	282	0	102
10	348	0	110
10	416	0	113
10	420	0	113
10	458	0	114
10	462	0	114
10	494	0	114
10	527	0	114
10	562	0	118
10	568	0	118
10	604	0	119
10	609	0	119
10	739	0	128
10	1174	0	133
10	1312	0	137
10	1326	0	137
10	1430	0	137
10	1474	0	137
10	1490	0	137
10	1646	0	140
10	1830	0	141
10	1902	0	141
10	2066	0	141
10	2286	0	141
10	2562	0	141
10	2772	0	141
10	3204	0	142
10	3424	0	142
10	3568	0	142
10	4264	0	142
10	4320	0	142
10	4760	0	142
10	4924	0	143
10	5156	0	143
10	5224	0	143
10	5232	0	143
10	5272	0	143
10	5284	0	143
10	5372	0	143
10	5480	0	143
10	5612	0	143
10	5856	0	143
10	5960	0	143
10	6180	0	143
10	6444	0	143
10	7616	0	143
10	10824	0	144
10	12560	0	144
10	13944	0	144
10	14936	0	144
10	15320	0	144
10	16520	0	144
10	16600	0	144
10	17928	0	144
10	20968	0	144
10	21032	0	144
11	13	0	12
11	89	0	54
11	209	0	91
11	330	0	106
11	337	0	106
11	354	0	110
11	417	0	113
11	422	0	113
11	438	0	114
11	1006	0	129
11	1234	0	135
11	1240	0	135
11	1280	0	135
11	1318	0	137
11	1412	0	137
11	1566	0	137
11	1572	0	137
11	1820	0	141
11	2262	0	141
11	2288	0	141
11	2444	0	141
11	2782	0	141
11	2822	0	141
11	2832	0	141
11	3124	0	142
11	3500	0	142
11	3956	0	142
11	4020	0	142
11	4048	0	142
11	4176	0	142
11	4236	0	142
11	4256	0	142
11	5112	0	143
11	5684	0	143
11	5692	0	143
11	6392	0	143
11	6420	0	143
11	6440	0	143
11	8504	0	143
11	8592	0	143
11	9600	0	143
11	10152	0	143
11	10248	0	143
11	10840	0	144
11	11936	0	144
11	12600	0	144
11	12616	0	144
11	12848	0	144
11	13144	0	144
11	13472	0	144
11	13512	0	144
11	14528	0	144
11	14760	0	144
11	14824	0	144
11	16328	0	144
11	17112	0	144
11	19528	0	144
11	20184	0	144
11	20600	0	144
11	21656	0	144
12	14	0	13
12	374	0	111
12	447	0	114
12	560	0	118
12	718	0	128
12	741	0	128
12	826	0	128
12	846	0	128
12	914	0	128
12	993	0	129
12	1004	0	129
12	1028	0	129
12	1398	0	137
12	1460	0	137
12	1494	0	137
12	1520	0	137
12	1548	0	137
12	1630	0	140
12	1668	0	140
12	1684	0	140
12	1900	0	141
12	1978	0	141
12	2136	0	141
12	2164	0	141
12	2442	0	141
12	2572	0	141
12	3548	0	142
12	3848	0	142
12	4084	0	142
12	4536	0	142
12	4808	0	142
12	4824	0	143
12	4856	0	143
12	4944	0	143
12	5412	0	143
12	5836	0	143
12	6404	0	143
12	6460	0	143
12	6696	0	143
12	8280	0	143
12	8456	0	143
12	8752	0	143
12	9144	0	143
12	9224	0	143
12	10376	0	143
12	10808	0	144
12	11520	0	144
12	11968	0	144
12	12576	0	144
12	13096	0	144
12	15624	0	144
12	16104	0	144
12	17528	0	144
12	17736	0	144
12	21720	0	144
12	21944	0	144
13	16	0	14
13	147	0	73
13	158	0	75
13	202	0	90
13	254	0	100
13	275	0	101
13	299	0	102
13	439	0	114
13	471	0	114
13	492	0	114
13	524	0	114
13	621	0	119
13	1202	0	133
13	1320	0	137
13	1348	0	137
13	1384	0	137
13	1392	0	137
13	1498	0	137
13	1860	0	141
13	2240	0	141
13	2314	0	141
13	2820	0	141
13	3200	0	142
13	4220	0	142
13	4476	0	142
13	4764	0	142
13	4780	0	142
13	4832	0	143
13	4984	0	143
13	5288	0	143
13	5700	0	143
13	5764	0	143
13	5800	0	143
13	5936	0	143
13	6340	0	143
13	6604	0	143
13	7528	0	143
13	8152	0	143
13	8584	0	143
13	9312	0	143
13	9576	0	143
13	10272	0	143
13	10696	0	143
13	10848	0	144
13	11336	0	144
13	11752	0	144
13	11864	0	144
13	12160	0	144
13	12472	0	144
13	13520	0	144
13	13696	0	144
13	13768	0	144
13	14648	0	144
13	15976	0	144
13	17992	0	144
13	19656	0	144
13	19912	0	144
13	20248	0	144
14	17	0	15
14	97	0	59
14	160	0	75
14	331	0	106
14	478	0	114
14	485	0	114
14	554	0	118
14	625	0	119
14	717	0	128
14	761	0	128
14	772	0	128
14	837	0	128
14	917	0	128
14	972	0	129
14	1576	0	137
14	1750	0	141
14	1790	0	141
14	1928	0	141
14	2002	0	141
14	2120	0	141
14	2166	0	141
14	2480	0	141
14	2786	0	141
14	2798	0	141
14	2948	0	141
14	3904	0	142
14	4440	0	142
14	4732	0	142
14	5348	0	143
14	6388	0	143
14	6400	0	143
14	6568	0	143
14	7224	0	143
14	7296	0	143
14	7648	0	143
14	7728	0	143
14	8296	0	143
14	9592	0	143
14	9648	0	143
14	10344	0	143
14	10552	0	143
14	11400	0	144
14	11536	0	144
14	11592	0	144
14	12912	0	144
14	14912	0	144
14	16008	0	144
14	16056	0	144
14	16152	0	144
14	17272	0	144
14	17752	0	144
14	17784	0	144
14	21608	0	144
14	21784	0	144
15	18	0	16
15	72	0	44
15	334	0	106
15	376	0	111
15	583	0	118
15	1208	0	133
15	1360	0	137
15	1762	0	141
15	1882	0	141
15	2008	0	141
15	2360	0	141
15	2370	0	141
15	2382	0	141
15	2416	0	141
15	2950	0	141
15	5352	0	143
15	5908	0	143
15	6564	0	143
15	7320	0	143
15	8472	0	143
15	9584	0	143
15	9680	0	143
15	10072	0	143
15	10264	0	143
15	11552	0	144
15	11888	0	144
15	13704	0	144
15	16120	0	144
15	16456	0	144
15	16488	0	144
15	17816	0	144
15	20312	0	144
15	21208	0	144
15	21880	0	144
16	20	0	17
16	71	0	44
16	83	0	53
16	199	0	89
16	235	0	98
16	244	0	100
16	443	0	114
16	445	0	114
16	487	0	114
16	908	0	128
16	1032	0	129
16	1062	0	132
16	1196	0	133
16	1314	0	137
16	1466	0	137
16	1614	0	140
16	1842	0	141
16	1884	0	141
16	1888	0	141
16	2146	0	141
16	2374	0	141
16	2384	0	141
16	2512	0	141
16	2584	0	141
16	2760	0	141
16	3064	0	142
16	3824	0	142
16	3880	0	142
16	4016	0	142
16	4116	0	142
16	5212	0	143
16	5296	0	143
16	5524	0	143
16	5652	0	143
16	5920	0	143
16	6872	0	143
16	6884	0	143
16	7024	0	143
16	7760	0	143
16	8640	0	143
16	8712	0	143
16	8776	0	143
16	9112	0	143
16	10144	0	143
16	11112	0	144
16	11664	0	144
16	12624	0	144
16	13248	0	144
16	14544	0	144
16	15288	0	144
16	15880	0	144
16	16168	0	144
16	16392	0	144
16	19544	0	144
16	21672	0	144
16	21848	0	144
17	21	0	18
17	107	0	61
17	145	0	72
17	154	0	75
17	392	0	112
17	411	0	113
17	413	0	113
17	477	0	114
17	529	0	114
17	538	0	114
17	715	0	128
17	1012	0	129
17	1582	0	137
17	1616	0	140
17	1698	0	140
17	1712	0	141
17	2034	0	141
17	2328	0	141
17	2362	0	141
17	2378	0	141
17	2486	0	141
17	3444	0	142
17	3456	0	142
17	5536	0	143
17	5708	0	143
17	5832	0	143
17	6704	0	143
17	6836	0	143
17	8664	0	143
17	10080	0	143
17	11264	0	144
17	13008	0	144
17	14968	0	144
17	17288	0	144
17	19592	0	144
17	20648	0	144
17	21992	0	144
18	22	0	19
18	117	0	63
18	139	0	70
18	148	0	73
18	205	0	90
18	232	0	98
18	278	0	101
18	403	0	113
18	412	0	113
18	614	0	119
18	626	0	119
18	920	0	128
18	988	0	129
18	1190	0	133
18	1262	0	135
18	1354	0	137
18	1508	0	137
18	1834	0	141
18	1848	0	141
18	1898	0	141
18	1988	0	141
18	1996	0	141
18	2098	0	141
18	2246	0	141
18	2324	0	141
18	2800	0	141
18	3084	0	142
18	3220	0	142
18	4112	0	142
18	4992	0	143
18	5240	0	143
18	5380	0	143
18	5504	0	143
18	5532	0	143
18	5540	0	143
18	5860	0	143
18	6008	0	143
18	6736	0	143
18	7656	0	143
18	8160	0	143
18	8648	0	143
18	8896	0	143
18	9448	0	143
18	9520	0	143
18	9672	0	143
18	10536	0	143
18	10880	0	144
18	11560	0	144
18	12040	0	144
18	13712	0	144
18	13728	0	144
18	14008	0	144
18	14056	0	144
18	14584	0	144
18	15560	0	144
18	15864	0	144
18	19688	0	144
18	20120	0	144
18	20920	0	144
18	21480	0	144
18	21816	0	144
19	24	0	20
19	106	0	61
19	111	0	63
19	162	0	75
19	613	0	119
19	639	0	119
19	755	0	128
19	759	0	128
19	763	0	128
19	817	0	128
19	834	0	128
19	850	0	128
19	1454	0	137
19	1754	0	141
19	1844	0	141
19	2236	0	141
19	2400	0	141
19	2530	0	141
19	2534	0	141
19	2794	0	141
19	2846	0	141
19	4344	0	142
19	4496	0	142
19	4612	0	142
19	4720	0	142
19	4932	0	143
19	5128	0	143
19	5332	0	143
19	5404	0	143
19	5432	0	143
19	6052	0	143
19	6140	0	143
19	7872	0	143
19	8120	0	143
19	8744	0	143
19	9752	0	143
19	11208	0	144
19	11224	0	144
19	11480	0	144
19	11616	0	144
19	11648	0	144
19	12016	0	144
19	12240	0	144
19	12584	0	144
19	13488	0	144
19	13720	0	144
19	14016	0	144
19	14704	0	144
19	14752	0	144
19	14808	0	144
19	14976	0	144
19	15256	0	144
19	15656	0	144
19	16680	0	144
19	19464	0	144
19	20664	0	144
19	21928	0	144
20	26	0	21
20	60	0	40
20	64	0	42
20	91	0	54
20	141	0	70
20	346	0	109
20	355	0	110
20	364	0	110
20	379	0	111
20	561	0	118
20	647	0	119
20	784	0	128
20	820	0	128
20	998	0	129
20	1434	0	137
20	1560	0	137
20	1722	0	141
20	1822	0	141
20	1914	0	141
20	2250	0	141
20	2342	0	141
20	2430	0	141
20	2626	0	141
20	2808	0	141
20	3100	0	142
20	3188	0	142
20	4124	0	142
20	5028	0	143
20	5460	0	143
20	5488	0	143
20	5500	0	143
20	5588	0	143
20	5640	0	143
20	5816	0	143
20	5844	0	143
20	5984	0	143
20	6216	0	143
20	6344	0	143
20	6532	0	143
20	6776	0	143
20	8216	0	143
20	8720	0	143
20	8856	0	143
20	9504	0	143
20	10240	0	143
20	11128	0	144
20	12064	0	144
20	12976	0	144
20	14992	0	144
20	15848	0	144
20	20456	0	144
20	21240	0	144
20	22248	0	144
21	28	0	22
21	338	0	106
21	452	0	114
21	459	0	114
21	534	0	114
21	577	0	118
21	601	0	119
21	634	0	119
21	645	0	119
21	719	0	128
21	736	0	128
21	910	0	128
21	1046	0	129
21	1246	0	135
21	1850	0	141
21	1910	0	141
21	1956	0	141
21	1984	0	141
21	2076	0	141
21	2102	0	141
21	2272	0	141
21	2340	0	141
21	2508	0	141
21	2774	0	141
21	3052	0	142
21	3296	0	142
21	3860	0	142
21	4836	0	143
21	5152	0	143
21	5360	0	143
21	5668	0	143
21	6360	0	143
21	6412	0	143
21	6576	0	143
21	6636	0	143
21	7256	0	143
21	7496	0	143
21	8816	0	143
21	8944	0	143
21	8968	0	143
21	9056	0	143
21	9136	0	143
21	10136	0	143
21	10680	0	143
21	12056	0	144
21	12096	0	144
21	12520	0	144
21	12592	0	144
21	13184	0	144
21	13672	0	144
21	14616	0	144
21	15224	0	144
21	16264	0	144
21	20072	0	144
21	21448	0	144
22	29	0	23
22	90	0	54
22	130	0	69
22	207	0	90
22	270	0	101
22	286	0	102
22	380	0	111
22	491	0	114
22	595	0	119
22	644	0	119
22	853	0	128
22	968	0	129
22	1038	0	129
22	1284	0	135
22	1366	0	137
22	1402	0	137
22	1650	0	140
22	1828	0	141
22	1862	0	141
22	1954	0	141
22	1976	0	141
22	2290	0	141
22	2294	0	141
22	2338	0	141
22	2510	0	141
22	2922	0	141
22	3476	0	142
22	4072	0	142
22	4088	0	142
22	4304	0	142
22	4436	0	142
22	5168	0	143
22	5192	0	143
22	6408	0	143
22	7480	0	143
22	8248	0	143
22	8536	0	143
22	9424	0	143
22	10600	0	143
22	10736	0	143
22	11768	0	144
22	11960	0	144
22	12032	0	144
22	12416	0	144
22	13536	0	144
22	14104	0	144
22	14832	0	144
22	15576	0	144
22	15704	0	144
22	16312	0	144
22	16664	0	144
22	21064	0	144
23	30	0	24
23	67	0	43
23	134	0	70
23	505	0	114
23	596	0	119
23	605	0	119
23	611	0	119
23	726	0	128
23	788	0	128
23	816	0	128
23	913	0	128
23	916	0	128
23	919	0	128
23	992	0	129
23	1184	0	133
23	1236	0	135
23	1278	0	135
23	1440	0	137
23	1654	0	140
23	1664	0	140
23	1758	0	141
23	1972	0	141
23	2150	0	141
23	2254	0	141
23	2300	0	141
23	2396	0	141
23	2522	0	141
23	3572	0	142
23	4816	0	142
23	6116	0	143
23	6240	0	143
23	6332	0	143
23	6484	0	143
23	6692	0	143
23	6808	0	143
23	7400	0	143
23	9712	0	143
23	11784	0	144
23	12640	0	144
23	13296	0	144
23	13760	0	144
23	15176	0	144
23	21000	0	144
23	22120	0	144
23	22280	0	145
24	31	0	25
24	34	0	27
24	136	0	70
24	165	0	75
24	581	0	118
24	732	0	128
24	783	0	128
24	918	0	128
24	1000	0	129
24	1024	0	129
24	1186	0	133
24	1286	0	135
24	1378	0	137
24	1648	0	140
24	1886	0	141
24	1908	0	141
24	2242	0	141
24	2312	0	141
24	2582	0	141
24	2696	0	141
24	2770	0	141
24	3436	0	142
24	3520	0	142
24	4508	0	142
24	4784	0	142
24	4936	0	143
24	5268	0	143
24	5928	0	143
24	6480	0	143
24	6488	0	143
24	6716	0	143
24	6732	0	143
24	6848	0	143
24	7568	0	143
24	7720	0	143
24	7736	0	143
24	8080	0	143
24	8576	0	143
24	8808	0	143
24	9000	0	143
24	9096	0	143
24	10392	0	143
24	11464	0	144
24	12048	0	144
24	14520	0	144
24	14920	0	144
24	15832	0	144
24	16296	0	144
24	17640	0	144
24	17976	0	144
24	21464	0	144
25	32	0	26
25	268	0	101
25	361	0	110
25	421	0	113
25	497	0	114
25	628	0	119
25	679	0	127
25	782	0	128
25	802	0	128
25	981	0	129
25	1008	0	129
25	1172	0	133
25	1242	0	135
25	1478	0	137
25	1656	0	140
25	1894	0	141
25	1904	0	141
25	1950	0	141
25	2298	0	141
25	2402	0	141
25	2458	0	141
25	2604	0	141
25	2706	0	141
25	3108	0	142
25	4192	0	142
25	4288	0	142
25	4468	0	142
25	4632	0	142
25	6224	0	143
25	6724	0	143
25	7464	0	143
25	7840	0	143
25	9248	0	143
25	9880	0	143
25	9944	0	143
25	10896	0	144
25	13928	0	144
25	14600	0	144
25	16968	0	144
25	17768	0	144
25	20984	0	144
25	21640	0	144
26	33	0	27
26	250	0	100
26	262	0	101
26	333	0	106
26	384	0	111
26	451	0	114
26	525	0	114
26	528	0	114
26	615	0	119
26	635	0	119
26	835	0	128
26	839	0	128
26	1192	0	133
26	1444	0	137
26	1516	0	137
26	1568	0	137
26	1826	0	141
26	1832	0	141
26	2128	0	141
26	2154	0	141
26	2158	0	141
26	2258	0	141
26	2446	0	141
26	2842	0	141
26	3056	0	142
26	3312	0	142
26	3432	0	142
26	3472	0	142
26	3552	0	142
26	3840	0	142
26	4756	0	142
26	4912	0	143
26	4920	0	143
26	5424	0	143
26	5724	0	143
26	5780	0	143
26	6136	0	143
26	6168	0	143
26	7560	0	143
26	7592	0	143
26	8696	0	143
26	9240	0	143
26	9456	0	143
26	9904	0	143
26	10368	0	143
26	11504	0	144
26	11984	0	144
26	12536	0	144
26	13240	0	144
26	13992	0	144
26	16584	0	144
26	18776	0	144
26	21080	0	144
27	36	0	28
27	88	0	54
27	517	0	114
27	519	0	114
27	2630	0	141
27	2682	0	141
27	4268	0	142
27	4276	0	142
27	5484	0	143
27	5584	0	143
27	10832	0	144
27	12352	0	144
27	17128	0	144
28	37	0	29
28	43	0	33
28	2644	0	141
28	2648	0	141
28	2660	0	141
28	2676	0	141
28	4272	0	142
28	5072	0	143
28	5084	0	143
28	12336	0	144
29	38	0	30
29	40	0	31
29	49	0	36
29	518	0	114
29	2632	0	141
29	2636	0	141
29	2646	0	141
29	2652	0	141
29	2666	0	141
29	2680	0	141
29	5060	0	143
29	5080	0	143
29	12312	0	144
29	12344	0	144
30	39	0	31
30	2640	0	141
30	2650	0	141
30	2658	0	141
30	2664	0	141
30	2672	0	141
30	2678	0	141
30	5064	0	143
30	12320	0	144
31	41	0	32
31	48	0	36
31	52	0	36
31	2638	0	141
31	2642	0	141
31	2662	0	141
31	2670	0	141
31	5056	0	143
31	5068	0	143
31	5076	0	143
31	5088	0	143
31	12328	0	144
32	42	0	33
32	44	0	33
32	2634	0	141
32	2656	0	141
32	2674	0	141
33	45	0	34
33	50	0	36
33	53	0	36
33	2654	0	141
33	2668	0	141
33	5048	0	143
33	12304	0	144
34	46	0	35
34	51	0	36
34	54	0	36
34	5044	0	143
34	5092	0	143
34	21336	0	144
35	47	0	36
35	5040	0	143
35	5052	0	143
35	12296	0	144
35	21320	0	144
36	55	0	37
36	124	0	66
36	1298	0	135
36	1302	0	135
36	3176	0	142
36	4136	0	142
36	4384	0	142
36	5036	0	143
36	5096	0	143
36	10208	0	143
36	12288	0	144
36	21304	0	144
36	21352	0	144
37	56	0	38
37	291	0	102
37	326	0	106
37	456	0	114
37	514	0	114
37	1250	0	135
37	1296	0	135
37	1872	0	141
37	2554	0	141
37	3180	0	142
37	3248	0	142
37	3276	0	142
37	3344	0	142
37	4140	0	142
37	4400	0	142
37	4568	0	142
37	6080	0	143
37	6196	0	143
37	6524	0	143
37	6664	0	143
37	13832	0	144
37	13856	0	144
38	57	0	39
38	59	0	40
38	257	0	101
38	295	0	102
38	1554	0	137
38	2072	0	141
38	2344	0	141
38	2546	0	141
38	3252	0	142
38	3356	0	142
38	4388	0	142
38	5980	0	143
38	6296	0	143
38	6520	0	143
38	8208	0	143
38	8848	0	143
38	10200	0	143
38	21288	0	144
38	21368	0	144
39	58	0	40
39	121	0	64
39	225	0	96
39	265	0	101
39	324	0	106
39	406	0	113
39	455	0	114
39	565	0	118
39	600	0	119
39	744	0	128
39	831	0	128
39	1310	0	137
39	1854	0	141
39	2070	0	141
39	2270	0	141
39	2274	0	141
39	2348	0	141
39	2558	0	141
39	2810	0	141
39	3096	0	142
39	3192	0	142
39	3284	0	142
39	3996	0	142
39	4392	0	142
39	4548	0	142
39	4556	0	142
39	5204	0	143
39	5368	0	143
39	5804	0	143
39	5812	0	143
39	5884	0	143
39	6764	0	143
39	9304	0	143
39	11856	0	144
39	13352	0	144
39	13880	0	144
39	14736	0	144
40	61	0	41
40	301	0	102
40	466	0	114
40	502	0	114
40	535	0	114
40	589	0	118
40	738	0	128
40	751	0	128
40	852	0	128
40	977	0	129
40	1346	0	137
40	1696	0	140
40	1836	0	141
40	2000	0	141
40	2062	0	141
40	2156	0	141
40	2714	0	141
40	2728	0	141
40	3308	0	142
40	3316	0	142
40	3380	0	142
40	3440	0	142
40	3492	0	142
40	3540	0	142
40	4044	0	142
40	4052	0	142
40	4416	0	142
40	4600	0	142
40	5952	0	143
40	6148	0	143
40	6348	0	143
40	6364	0	143
40	7704	0	143
40	8176	0	143
40	8440	0	143
40	8464	0	143
40	8672	0	143
40	10352	0	143
40	11816	0	144
40	11944	0	144
40	12904	0	144
40	13200	0	144
40	16552	0	144
40	20296	0	144
40	22136	0	144
41	63	0	42
41	78	0	49
41	98	0	59
41	112	0	63
41	195	0	89
41	242	0	100
41	449	0	114
41	627	0	119
41	773	0	128
41	786	0	128
41	789	0	128
41	907	0	128
41	1448	0	137
41	1456	0	137
41	1488	0	137
41	1534	0	137
41	1574	0	137
41	1628	0	140
41	1666	0	140
41	2058	0	141
41	2260	0	141
41	2308	0	141
41	2386	0	141
41	2528	0	141
41	2818	0	141
41	3960	0	142
41	4168	0	142
41	4204	0	142
41	4520	0	142
41	4776	0	142
41	5512	0	143
41	5520	0	143
41	6132	0	143
41	6324	0	143
41	6796	0	143
41	7416	0	143
41	7576	0	143
41	8600	0	143
41	9320	0	143
41	9736	0	143
41	10096	0	143
41	10496	0	143
41	11032	0	144
41	11456	0	144
41	12552	0	144
41	15688	0	144
41	15784	0	144
41	16088	0	144
41	19416	0	144
41	19496	0	144
41	19736	0	144
41	21112	0	144
41	21800	0	144
41	22072	0	144
42	66	0	43
42	129	0	69
42	231	0	98
42	263	0	101
42	285	0	102
42	304	0	103
42	721	0	128
42	771	0	128
42	778	0	128
42	818	0	128
42	838	0	128
42	967	0	129
42	974	0	129
42	1368	0	137
42	1482	0	137
42	1528	0	137
42	1772	0	141
42	1800	0	141
42	2118	0	141
42	2466	0	141
42	2482	0	141
42	2924	0	141
42	3820	0	142
42	3876	0	142
42	4212	0	142
42	5308	0	143
42	6100	0	143
42	6424	0	143
42	7632	0	143
42	8520	0	143
42	9920	0	143
42	10480	0	143
42	10592	0	143
42	10624	0	143
42	10728	0	143
42	11104	0	144
42	11184	0	144
42	12656	0	144
42	12928	0	144
42	13920	0	144
42	14592	0	144
42	15160	0	144
42	17672	0	144
42	21096	0	144
42	22056	0	144
42	22232	0	144
43	70	0	44
43	99	0	59
43	132	0	69
43	259	0	101
43	302	0	102
43	329	0	106
43	349	0	110
43	531	0	114
43	569	0	118
43	606	0	119
43	616	0	119
43	619	0	119
43	638	0	119
43	766	0	128
43	792	0	128
43	801	0	128
43	833	0	128
43	1040	0	129
43	1226	0	135
43	1436	0	137
43	1536	0	137
43	1540	0	137
43	1658	0	140
43	1816	0	141
43	1856	0	141
43	1994	0	141
43	2472	0	141
43	2710	0	141
43	2722	0	141
43	2778	0	141
43	2918	0	141
43	3104	0	142
43	3268	0	142
43	3288	0	142
43	4424	0	142
43	4504	0	142
43	4608	0	142
43	4788	0	142
43	5496	0	143
43	5596	0	143
43	5892	0	143
43	6428	0	143
43	6472	0	143
43	6504	0	143
43	6572	0	143
43	6720	0	143
43	6820	0	143
43	7392	0	143
43	7520	0	143
43	8880	0	143
43	9264	0	143
43	9544	0	143
43	10040	0	143
43	10128	0	143
43	10664	0	143
43	10720	0	143
43	10888	0	144
43	11048	0	144
43	12176	0	144
43	12408	0	144
43	12440	0	144
43	12544	0	144
43	12936	0	144
43	13112	0	144
43	13304	0	144
43	13904	0	144
43	14624	0	144
43	14720	0	144
43	15432	0	144
43	17704	0	144
43	19672	0	144
43	20088	0	144
43	21832	0	144
44	73	0	45
44	114	0	63
44	137	0	70
44	194	0	89
44	234	0	98
44	319	0	106
44	366	0	110
44	371	0	110
44	432	0	114
44	590	0	118
44	713	0	128
44	823	0	128
44	924	0	128
44	966	0	129
44	970	0	129
44	986	0	129
44	1200	0	133
44	1274	0	135
44	2332	0	141
44	2414	0	141
44	2474	0	141
44	2484	0	141
44	2716	0	141
44	4364	0	142
44	4472	0	142
44	5384	0	143
44	6044	0	143
44	6056	0	143
44	6552	0	143
44	6624	0	143
44	6828	0	143
44	6876	0	143
44	7384	0	143
44	7456	0	143
44	7544	0	143
44	7896	0	143
44	10088	0	143
44	10856	0	144
44	11424	0	144
44	12184	0	144
44	12448	0	144
44	12648	0	144
44	12856	0	144
44	13080	0	144
44	13784	0	144
44	13912	0	144
44	14512	0	144
44	14552	0	144
44	14664	0	144
44	15416	0	144
44	16824	0	144
44	19816	0	144
44	19928	0	144
44	20152	0	144
45	74	0	46
45	103	0	61
45	105	0	61
45	370	0	110
45	548	0	117
45	591	0	118
45	676	0	127
45	699	0	127
45	712	0	128
45	888	0	128
45	891	0	128
45	905	0	128
45	925	0	128
45	935	0	128
45	945	0	128
45	953	0	129
45	1136	0	133
45	2190	0	141
45	2208	0	141
45	2854	0	141
45	2904	0	141
45	2910	0	141
45	3772	0	142
45	3900	0	142
45	3920	0	142
45	4644	0	142
45	7208	0	143
45	8352	0	143
45	8376	0	143
45	9384	0	143
45	11632	0	144
45	14408	0	144
45	18456	0	144
46	75	0	47
46	546	0	116
46	549	0	117
46	681	0	127
46	691	0	127
46	866	0	128
46	871	0	128
46	936	0	128
46	2192	0	141
46	2410	0	141
46	3660	0	142
46	4684	0	142
46	4700	0	142
46	7096	0	143
46	7912	0	143
46	8320	0	143
46	9784	0	143
46	9968	0	143
46	11384	0	144
46	12800	0	144
46	14160	0	144
46	14200	0	144
46	14312	0	144
46	15032	0	144
46	18872	0	144
46	18984	0	144
47	76	0	48
47	314	0	106
47	367	0	110
47	369	0	110
47	663	0	126
47	708	0	128
47	762	0	128
47	807	0	128
47	809	0	128
47	875	0	128
47	898	0	128
47	1106	0	133
47	1134	0	133
47	1452	0	137
47	2232	0	141
47	2404	0	141
47	2700	0	141
47	2882	0	141
47	2966	0	141
47	3612	0	142
47	3692	0	142
47	3728	0	142
47	3744	0	142
47	3812	0	142
47	3908	0	142
47	4464	0	142
47	4660	0	142
47	9400	0	143
47	9792	0	143
47	9808	0	143
47	9864	0	143
47	11608	0	144
47	12712	0	144
47	12728	0	144
47	14152	0	144
47	14424	0	144
47	14688	0	144
47	18200	0	144
47	18648	0	144
48	77	0	49
48	100	0	59
48	191	0	88
48	277	0	101
48	341	0	107
48	649	0	119
48	906	0	128
48	980	0	129
48	1020	0	129
48	1064	0	133
48	1450	0	137
48	1618	0	140
48	1688	0	140
48	1716	0	141
48	1742	0	141
48	1880	0	141
48	1992	0	141
48	2088	0	141
48	2096	0	141
48	2116	0	141
48	2326	0	141
48	2580	0	141
48	2720	0	141
48	2940	0	141
48	3816	0	142
48	3952	0	142
48	4228	0	142
48	4356	0	142
48	4716	0	142
48	5648	0	143
48	6276	0	143
48	8240	0	143
48	9912	0	143
48	10616	0	143
48	10632	0	143
48	11200	0	144
48	11472	0	144
48	11600	0	144
48	12008	0	144
48	12024	0	144
48	13072	0	144
48	13528	0	144
48	14136	0	144
48	14496	0	144
48	18712	0	144
48	20360	0	144
48	20552	0	144
48	20680	0	144
48	20888	0	144
48	21176	0	144
49	79	0	50
49	86	0	53
49	163	0	75
49	336	0	106
49	351	0	110
49	365	0	110
49	377	0	111
49	423	0	113
49	586	0	118
49	622	0	119
49	770	0	128
49	774	0	128
49	780	0	128
49	1328	0	137
49	1344	0	137
49	1578	0	137
49	1624	0	140
49	1730	0	141
49	1770	0	141
49	1812	0	141
49	1824	0	141
49	1918	0	141
49	1924	0	141
49	2114	0	141
49	2388	0	141
49	2468	0	141
49	2506	0	141
49	2514	0	141
49	2578	0	141
49	2592	0	141
49	2598	0	141
49	2762	0	141
49	2914	0	141
49	2946	0	141
49	3480	0	142
49	5508	0	143
49	5644	0	143
49	6104	0	143
49	6264	0	143
49	6356	0	143
49	6500	0	143
49	6548	0	143
49	7280	0	143
49	7352	0	143
49	7800	0	143
49	8032	0	143
49	8736	0	143
49	9688	0	143
49	10328	0	143
49	10584	0	143
49	11120	0	144
49	11704	0	144
49	12120	0	144
49	12368	0	144
49	12960	0	144
49	13272	0	144
49	13368	0	144
49	13504	0	144
49	13616	0	144
49	14024	0	144
49	15496	0	144
49	15544	0	144
49	15672	0	144
49	16504	0	144
49	17096	0	144
49	18728	0	144
49	18824	0	144
49	19880	0	144
49	19960	0	144
49	22040	0	144
50	80	0	51
50	193	0	89
50	248	0	100
50	363	0	110
50	418	0	113
50	465	0	114
50	469	0	114
50	521	0	114
50	722	0	128
50	730	0	128
50	851	0	128
50	979	0	129
50	1042	0	129
50	1388	0	137
50	1464	0	137
50	2052	0	141
50	2124	0	141
50	2478	0	141
50	2574	0	141
50	2684	0	141
50	2734	0	141
50	3512	0	142
50	3868	0	142
50	4036	0	142
50	4060	0	142
50	4292	0	142
50	4500	0	142
50	4744	0	142
50	5328	0	143
50	5388	0	143
50	6228	0	143
50	6544	0	143
50	6632	0	143
50	6860	0	143
50	7304	0	143
50	7664	0	143
50	8232	0	143
50	8272	0	143
50	8680	0	143
50	9048	0	143
50	10176	0	143
50	10488	0	143
50	11040	0	144
50	11136	0	144
50	11792	0	144
50	12968	0	144
50	14072	0	144
50	14576	0	144
50	15384	0	144
50	15816	0	144
50	20056	0	144
50	20904	0	144
50	21160	0	144
51	81	0	52
51	274	0	101
51	493	0	114
51	533	0	114
51	607	0	119
51	633	0	119
51	642	0	119
51	832	0	128
51	989	0	129
51	1340	0	137
51	1424	0	137
51	1468	0	137
51	1644	0	140
51	1794	0	141
51	1804	0	141
51	2126	0	141
51	2830	0	141
51	3196	0	142
51	3992	0	142
51	4488	0	142
51	4588	0	142
51	4804	0	142
51	5236	0	143
51	5244	0	143
51	5656	0	143
51	5968	0	143
51	6304	0	143
51	6608	0	143
51	7512	0	143
51	8224	0	143
51	8832	0	143
51	8888	0	143
51	8984	0	143
51	9176	0	143
51	10768	0	143
51	11728	0	144
51	12488	0	144
51	13360	0	144
51	13632	0	144
51	16424	0	144
51	17192	0	144
51	22216	0	144
52	82	0	53
52	152	0	75
52	395	0	112
52	430	0	114
52	475	0	114
52	1512	0	137
52	1612	0	140
52	2356	0	141
52	2372	0	141
52	2958	0	141
52	3400	0	142
52	4956	0	143
52	6744	0	143
52	6892	0	143
52	8432	0	143
52	13024	0	144
52	13040	0	144
52	13384	0	144
52	15928	0	144
53	87	0	54
53	157	0	75
53	506	0	114
53	520	0	114
53	764	0	128
53	790	0	128
53	995	0	129
53	1264	0	135
53	1308	0	136
53	1372	0	137
53	1420	0	137
53	1462	0	137
53	1570	0	137
53	1678	0	140
53	1814	0	141
53	1962	0	141
53	2106	0	141
53	2276	0	141
53	2304	0	141
53	2394	0	141
53	2432	0	141
53	2454	0	141
53	2464	0	141
53	2748	0	141
53	3004	0	141
53	3320	0	142
53	3536	0	142
53	4040	0	142
53	4092	0	142
53	4156	0	142
53	4324	0	142
53	4408	0	142
53	4576	0	142
53	4624	0	142
53	4820	0	143
53	5376	0	143
53	5492	0	143
53	5988	0	143
53	6108	0	143
53	6336	0	143
53	6476	0	143
53	9216	0	143
53	10104	0	143
53	10400	0	143
53	10776	0	143
53	11328	0	144
53	11568	0	144
53	12168	0	144
53	12200	0	144
53	12424	0	144
53	14744	0	144
53	17240	0	144
53	20440	0	144
53	22104	0	144
54	92	0	55
54	119	0	64
54	241	0	100
54	269	0	101
54	272	0	101
54	381	0	111
54	424	0	113
54	575	0	118
54	637	0	119
54	1022	0	129
54	1244	0	135
54	1484	0	137
54	1626	0	140
54	1640	0	140
54	2440	0	141
54	2600	0	141
54	3164	0	142
54	3300	0	142
54	3524	0	142
54	4012	0	142
54	4096	0	142
54	4420	0	142
54	4604	0	142
54	4840	0	143
54	4852	0	143
54	4860	0	143
54	5140	0	143
54	5660	0	143
54	5760	0	143
54	5840	0	143
54	6024	0	143
54	6152	0	143
54	7744	0	143
54	8128	0	143
54	9704	0	143
54	10864	0	144
54	11064	0	144
54	11080	0	144
54	11776	0	144
54	11824	0	144
54	13088	0	144
54	13888	0	144
54	14632	0	144
54	15000	0	144
54	15992	0	144
54	17560	0	144
54	17656	0	144
54	18760	0	144
54	18808	0	144
54	21624	0	144
54	22152	0	144
55	93	0	56
55	243	0	100
55	280	0	101
55	323	0	106
55	828	0	128
55	1268	0	135
55	1912	0	141
55	2022	0	141
55	2050	0	141
55	2316	0	141
55	2320	0	141
55	2752	0	141
55	2758	0	141
55	2816	0	141
55	3184	0	142
55	3216	0	142
55	3332	0	142
55	3364	0	142
55	4152	0	142
55	4540	0	142
55	4572	0	142
55	4800	0	142
55	4892	0	143
55	5324	0	143
55	5448	0	143
55	5864	0	143
55	5888	0	143
55	5944	0	143
55	6200	0	143
55	6248	0	143
55	6468	0	143
55	6668	0	143
55	9272	0	143
55	9528	0	143
55	10192	0	143
55	10504	0	143
55	10688	0	143
55	12984	0	144
55	13256	0	144
55	14536	0	144
55	15896	0	144
55	16184	0	144
56	94	0	57
56	197	0	89
56	203	0	90
56	224	0	96
56	229	0	97
56	247	0	100
56	264	0	101
56	266	0	101
56	284	0	102
56	322	0	106
56	350	0	110
56	481	0	114
56	489	0	114
56	574	0	118
56	643	0	119
56	742	0	128
56	975	0	129
56	999	0	129
56	1230	0	135
56	1258	0	135
56	1370	0	137
56	1526	0	137
56	1632	0	140
56	1672	0	140
56	1774	0	141
56	1780	0	141
56	2160	0	141
56	2238	0	141
56	2524	0	141
56	2576	0	141
56	2594	0	141
56	2616	0	141
56	2954	0	141
56	3292	0	142
56	3408	0	142
56	4108	0	142
56	4592	0	142
56	4772	0	142
56	5020	0	143
56	5132	0	143
56	5472	0	143
56	5664	0	143
56	5776	0	143
56	5848	0	143
56	6004	0	143
56	6028	0	143
56	6164	0	143
56	6284	0	143
56	6588	0	143
56	6852	0	143
56	7032	0	143
56	8792	0	143
56	9440	0	143
56	10760	0	143
56	11872	0	144
56	11912	0	144
56	12248	0	144
56	12432	0	144
56	15208	0	144
56	18792	0	144
56	19704	0	144
56	19784	0	144
56	20216	0	144
56	20936	0	144
57	95	0	58
57	127	0	68
57	253	0	100
57	427	0	113
57	563	0	118
57	573	0	118
57	737	0	128
57	767	0	128
57	793	0	128
57	827	0	128
57	1052	0	129
57	1204	0	133
57	1214	0	133
57	1382	0	137
57	1670	0	140
57	1766	0	141
57	1966	0	141
57	2014	0	141
57	2024	0	141
57	2538	0	141
57	2738	0	141
57	2916	0	141
57	3560	0	142
57	3832	0	142
57	4880	0	143
57	4976	0	143
57	5476	0	143
57	5544	0	143
57	6288	0	143
57	6464	0	143
57	6672	0	143
57	7608	0	143
57	8104	0	143
57	9128	0	143
57	10056	0	143
57	11848	0	144
57	15352	0	144
57	17880	0	144
58	96	0	59
58	142	0	70
58	345	0	109
58	383	0	111
58	464	0	114
58	501	0	114
58	504	0	114
58	530	0	114
58	608	0	119
58	624	0	119
58	749	0	128
58	768	0	128
58	794	0	128
58	909	0	128
58	976	0	129
58	1638	0	140
58	1920	0	141
58	1982	0	141
58	2004	0	141
58	2084	0	141
58	2122	0	141
58	2536	0	141
58	2564	0	141
58	2588	0	141
58	2694	0	141
58	2746	0	141
58	2838	0	141
58	2928	0	141
58	3128	0	142
58	3396	0	142
58	3404	0	142
58	3504	0	142
58	3576	0	142
58	4340	0	142
58	4940	0	143
58	4960	0	143
58	4988	0	143
58	5000	0	143
58	5012	0	143
58	5316	0	143
58	5568	0	143
58	6688	0	143
58	7432	0	143
58	8544	0	143
58	9640	0	143
58	10112	0	143
58	10360	0	143
58	11192	0	144
58	11248	0	144
58	11312	0	144
58	11408	0	144
58	12216	0	144
58	15448	0	144
58	15608	0	144
58	15768	0	144
58	16440	0	144
58	17016	0	144
58	17576	0	144
58	21224	0	144
59	101	0	60
59	171	0	79
59	178	0	84
59	185	0	87
59	316	0	106
59	552	0	118
59	812	0	128
59	872	0	128
59	1146	0	133
59	2178	0	141
59	2210	0	141
59	2994	0	141
59	3644	0	142
59	9992	0	143
59	14456	0	144
59	14680	0	144
59	18952	0	144
59	19288	0	144
59	20840	0	144
60	102	0	61
60	104	0	61
60	110	0	63
60	167	0	76
60	179	0	84
60	318	0	106
60	592	0	118
60	683	0	127
60	756	0	128
60	824	0	128
60	880	0	128
60	892	0	128
60	928	0	128
60	931	0	128
60	1016	0	129
60	1714	0	141
60	2176	0	141
60	2502	0	141
60	2852	0	141
60	2858	0	141
60	2964	0	141
60	3604	0	142
60	3736	0	142
60	4348	0	142
60	4664	0	142
60	6832	0	143
60	7088	0	143
60	7376	0	143
60	7880	0	143
60	8008	0	143
60	8312	0	143
60	9760	0	143
60	10008	0	143
60	11584	0	144
60	12808	0	144
60	14384	0	144
60	14416	0	144
60	14448	0	144
60	16840	0	144
60	18632	0	144
60	18664	0	144
60	18696	0	144
61	108	0	62
61	155	0	75
61	198	0	89
61	238	0	100
61	435	0	114
61	490	0	114
61	570	0	118
61	582	0	118
61	724	0	128
61	777	0	128
61	1056	0	130
61	1060	0	132
61	1206	0	133
61	1332	0	137
61	1338	0	137
61	1342	0	137
61	1410	0	137
61	1580	0	137
61	1620	0	140
61	1916	0	141
61	2056	0	141
61	2100	0	141
61	2256	0	141
61	2284	0	141
61	2302	0	141
61	2390	0	141
61	2420	0	141
61	3012	0	141
61	3484	0	142
61	3588	0	142
61	3872	0	142
61	3972	0	142
61	4336	0	142
61	4848	0	143
61	5164	0	143
61	5184	0	143
61	5720	0	143
61	5768	0	143
61	5956	0	143
61	6448	0	143
61	6708	0	143
61	6864	0	143
61	8064	0	143
61	8256	0	143
61	8992	0	143
61	9480	0	143
61	9568	0	143
61	9616	0	143
61	10064	0	143
61	10408	0	143
61	10568	0	143
61	10656	0	143
61	10712	0	143
61	10904	0	144
61	11416	0	144
61	11488	0	144
61	11528	0	144
61	12480	0	144
61	13224	0	144
61	13280	0	144
61	13968	0	144
61	13984	0	144
61	14784	0	144
61	14944	0	144
61	15720	0	144
61	17224	0	144
61	17960	0	144
61	19848	0	144
61	20488	0	144
62	109	0	63
62	335	0	106
62	414	0	113
62	484	0	114
62	543	0	114
62	556	0	118
62	758	0	128
62	971	0	129
62	1334	0	137
62	2032	0	141
62	2426	0	141
62	2934	0	141
62	3592	0	142
62	5716	0	143
62	7368	0	143
62	8024	0	143
62	8416	0	143
62	10024	0	143
62	10296	0	143
62	10912	0	144
62	10952	0	144
62	11272	0	144
62	11296	0	144
62	12376	0	144
62	12816	0	144
62	12832	0	144
62	14040	0	144
62	15480	0	144
62	17448	0	144
62	19864	0	144
62	20344	0	144
63	118	0	64
63	156	0	75
63	204	0	90
63	450	0	114
63	495	0	114
63	800	0	128
63	821	0	128
63	985	0	129
63	994	0	129
63	1350	0	137
63	1480	0	137
63	1634	0	140
63	1778	0	141
63	1808	0	141
63	2012	0	141
63	2132	0	141
63	2476	0	141
63	2688	0	141
63	3048	0	142
63	4532	0	142
63	4844	0	143
63	4916	0	143
63	5016	0	143
63	5172	0	143
63	5608	0	143
63	5688	0	143
63	7072	0	143
63	7248	0	143
63	7472	0	143
63	8496	0	143
63	9232	0	143
63	9488	0	143
63	10256	0	143
63	11160	0	144
63	11232	0	144
63	11448	0	144
63	12384	0	144
63	12568	0	144
63	13064	0	144
63	14712	0	144
63	14984	0	144
63	16136	0	144
63	17688	0	144
63	20104	0	144
63	20280	0	144
63	20616	0	144
63	21016	0	144
64	122	0	65
64	293	0	102
64	1304	0	135
64	2268	0	141
64	2542	0	141
64	3340	0	142
64	3348	0	142
64	4396	0	142
64	4552	0	142
64	5632	0	143
64	6192	0	143
64	9192	0	143
64	10216	0	143
64	21384	0	144
65	123	0	66
65	292	0	102
65	327	0	106
65	1292	0	135
65	1870	0	141
65	5748	0	143
65	8928	0	143
65	13320	0	144
65	21400	0	144
66	125	0	67
66	216	0	95
66	218	0	95
66	1294	0	135
66	2622	0	141
66	3172	0	142
66	3244	0	142
66	4132	0	142
66	4380	0	142
66	5100	0	143
66	6760	0	143
66	6768	0	143
66	13824	0	144
67	126	0	68
67	217	0	95
67	222	0	96
67	289	0	102
67	294	0	102
67	515	0	114
67	572	0	118
67	2074	0	141
67	2450	0	141
67	2544	0	141
67	2548	0	141
67	3076	0	142
67	3240	0	142
67	3260	0	142
67	4248	0	142
67	4872	0	143
67	4896	0	143
67	5752	0	143
67	6072	0	143
67	6292	0	143
67	6656	0	143
67	9288	0	143
67	16200	0	144
67	21272	0	144
68	128	0	69
68	385	0	111
68	486	0	114
68	488	0	114
68	496	0	114
68	500	0	114
68	740	0	128
68	746	0	128
68	1266	0	135
68	1414	0	137
68	1426	0	137
68	1446	0	137
68	1458	0	137
68	1530	0	137
68	1674	0	140
68	1974	0	141
68	2134	0	141
68	2148	0	141
68	2690	0	141
68	2792	0	141
68	2806	0	141
68	2840	0	141
68	3016	0	141
68	3088	0	142
68	3152	0	142
68	3372	0	142
68	4032	0	142
68	4316	0	142
68	4736	0	142
68	4768	0	142
68	5356	0	143
68	5396	0	143
68	5592	0	143
68	6016	0	143
68	6064	0	143
68	6700	0	143
68	7536	0	143
68	9664	0	143
68	10168	0	143
68	10520	0	143
68	11896	0	144
68	13896	0	144
68	14120	0	144
68	16344	0	144
68	18744	0	144
68	19480	0	144
69	133	0	70
69	161	0	75
69	240	0	100
69	283	0	102
69	332	0	106
69	360	0	110
69	419	0	113
69	426	0	113
69	453	0	114
69	923	0	128
69	1376	0	137
69	1486	0	137
69	1518	0	137
69	1764	0	141
69	1878	0	141
69	1952	0	141
69	2028	0	141
69	2278	0	141
69	2322	0	141
69	2766	0	141
69	3060	0	142
69	3132	0	142
69	3528	0	142
69	3564	0	142
69	3836	0	142
69	4024	0	142
69	4328	0	142
69	4628	0	142
69	4812	0	142
69	4884	0	143
69	5108	0	143
69	5176	0	143
69	5408	0	143
69	6280	0	143
69	6560	0	143
69	6580	0	143
69	6712	0	143
69	6844	0	143
69	9072	0	143
69	9496	0	143
69	9552	0	143
69	10184	0	143
69	11496	0	144
69	11920	0	144
69	11992	0	144
69	13448	0	144
69	13552	0	144
69	13624	0	144
69	14080	0	144
69	14608	0	144
69	15272	0	144
69	16984	0	144
69	17208	0	144
69	19624	0	144
69	20232	0	144
69	21544	0	144
70	143	0	71
70	394	0	112
70	396	0	112
70	1710	0	141
70	2006	0	141
70	2144	0	141
70	2376	0	141
70	2590	0	141
70	5552	0	143
70	5560	0	143
70	6680	0	143
70	6888	0	143
70	12872	0	144
70	13376	0	144
70	15464	0	144
70	15944	0	144
71	144	0	72
71	153	0	75
71	390	0	112
71	536	0	114
71	557	0	118
71	1584	0	137
71	1922	0	141
71	2044	0	141
71	2142	0	141
71	2368	0	141
71	2492	0	141
71	3384	0	142
71	4952	0	143
71	5912	0	143
71	6268	0	143
71	7000	0	143
71	11304	0	144
71	17832	0	144
71	21976	0	144
72	146	0	73
72	206	0	90
72	340	0	107
72	357	0	110
72	436	0	114
72	579	0	118
72	599	0	119
72	602	0	119
72	629	0	119
72	734	0	128
72	747	0	128
72	797	0	128
72	849	0	128
72	990	0	129
72	1194	0	133
72	1198	0	133
72	1276	0	135
72	1380	0	137
72	1394	0	137
72	1532	0	137
72	1564	0	137
72	1686	0	140
72	1802	0	141
72	1964	0	141
72	2252	0	141
72	2470	0	141
72	2520	0	141
72	2788	0	141
72	4064	0	142
72	4752	0	142
72	4980	0	143
72	5136	0	143
72	5444	0	143
72	6040	0	143
72	6156	0	143
72	6436	0	143
72	6780	0	143
72	7448	0	143
72	7488	0	143
72	7768	0	143
72	8072	0	143
72	8976	0	143
72	10160	0	143
72	11024	0	144
72	11168	0	144
72	11880	0	144
72	12256	0	144
72	12456	0	144
72	13128	0	144
72	13800	0	144
72	13960	0	144
72	14568	0	144
72	16040	0	144
72	16472	0	144
72	20040	0	144
72	21576	0	144
73	150	0	74
73	428	0	113
73	431	0	114
73	474	0	114
73	476	0	114
73	537	0	114
73	752	0	128
73	1890	0	141
73	2026	0	141
73	2030	0	141
73	2082	0	141
73	2138	0	141
73	2380	0	141
73	2568	0	141
73	2692	0	141
73	2942	0	141
73	3556	0	142
73	3984	0	142
73	4972	0	143
73	5672	0	143
73	5704	0	143
73	6452	0	143
73	6556	0	143
73	6868	0	143
73	8424	0	143
73	8768	0	143
73	9560	0	143
73	10416	0	143
73	10792	0	143
73	10936	0	144
73	11000	0	144
73	11256	0	144
73	11712	0	144
73	12104	0	144
73	13216	0	144
73	13232	0	144
73	14032	0	144
73	15240	0	144
73	15528	0	144
73	17080	0	144
73	17608	0	144
73	20376	0	144
73	21912	0	144
73	21960	0	144
74	151	0	75
74	398	0	112
74	542	0	114
74	1358	0	137
74	2010	0	141
74	2424	0	141
74	2494	0	141
74	2586	0	141
74	3388	0	142
74	3580	0	142
74	4968	0	143
74	5904	0	143
74	7016	0	143
74	8488	0	143
74	10288	0	143
74	13016	0	144
74	13208	0	144
74	13576	0	144
74	21896	0	144
75	166	0	76
75	317	0	106
75	593	0	118
75	677	0	127
75	867	0	128
75	887	0	128
75	893	0	128
75	1144	0	133
75	2698	0	141
75	2702	0	141
75	2856	0	141
75	2970	0	141
75	2986	0	141
75	2990	0	141
75	3740	0	142
75	4636	0	142
75	4668	0	142
75	4692	0	142
75	7952	0	143
75	9816	0	143
75	12744	0	144
75	14280	0	144
75	14328	0	144
75	16856	0	144
75	16904	0	144
75	16952	0	144
75	18584	0	144
75	19368	0	144
76	168	0	77
76	181	0	85
76	190	0	88
76	682	0	127
76	697	0	127
76	804	0	128
76	959	0	129
76	1018	0	129
76	1066	0	133
76	1118	0	133
76	1130	0	133
76	2216	0	141
76	2220	0	141
76	3756	0	142
76	3924	0	142
76	7968	0	143
76	7992	0	143
76	14248	0	144
76	14272	0	144
76	14368	0	144
76	14480	0	144
76	15096	0	144
76	16744	0	144
76	20776	0	144
76	20872	0	144
77	169	0	78
77	184	0	87
77	189	0	88
77	869	0	128
77	881	0	128
77	926	0	128
77	930	0	128
77	942	0	128
77	944	0	128
77	955	0	129
77	960	0	129
77	1070	0	133
77	1108	0	133
77	1132	0	133
77	1140	0	133
77	1938	0	141
77	2170	0	141
77	2180	0	141
77	2188	0	141
77	2908	0	141
77	2998	0	141
77	3768	0	142
77	3808	0	142
77	7104	0	143
77	7128	0	143
77	7928	0	143
77	7976	0	143
77	12696	0	144
77	12768	0	144
77	14400	0	144
77	14432	0	144
77	16760	0	144
77	18072	0	144
77	18104	0	144
77	18216	0	144
77	20760	0	144
78	170	0	79
78	654	0	121
78	661	0	126
78	668	0	126
78	685	0	127
78	689	0	127
78	694	0	127
78	698	0	127
78	700	0	127
78	899	0	128
78	956	0	129
78	1152	0	133
78	1156	0	133
78	1944	0	141
78	2202	0	141
78	2214	0	141
78	2906	0	141
78	2982	0	141
78	3616	0	142
78	3724	0	142
78	3752	0	142
78	3760	0	142
78	3896	0	142
78	3944	0	142
78	7120	0	143
78	9840	0	143
78	15080	0	144
78	18168	0	144
78	18552	0	144
78	19128	0	144
78	20728	0	144
79	172	0	80
79	174	0	81
79	306	0	104
79	664	0	126
79	675	0	127
79	687	0	127
79	806	0	128
79	943	0	128
79	1086	0	133
79	1090	0	133
79	1096	0	133
79	1166	0	133
79	2184	0	141
79	2894	0	141
79	2972	0	141
79	2996	0	141
79	3648	0	142
79	3676	0	142
79	3748	0	142
79	3780	0	142
79	11368	0	144
79	14192	0	144
79	14256	0	144
79	14296	0	144
79	15064	0	144
79	16872	0	144
79	18568	0	144
79	19096	0	144
79	19144	0	144
80	173	0	81
80	671	0	127
80	690	0	127
80	706	0	128
80	862	0	128
80	933	0	128
80	939	0	128
80	941	0	128
80	962	0	129
80	1164	0	133
80	2198	0	141
80	2218	0	141
80	2228	0	141
80	2870	0	141
80	2874	0	141
80	3804	0	142
80	7136	0	143
80	14184	0	144
80	15048	0	144
80	18424	0	144
80	18536	0	144
80	19048	0	144
80	19272	0	144
80	19304	0	144
80	20824	0	144
81	175	0	82
81	672	0	127
81	703	0	127
81	885	0	128
81	957	0	129
81	1120	0	133
81	1148	0	133
81	2864	0	141
81	2872	0	141
81	3000	0	141
81	3624	0	142
81	3640	0	142
81	7920	0	143
81	9856	0	143
81	18312	0	144
81	18360	0	144
81	18408	0	144
81	18936	0	144
81	19256	0	144
81	19336	0	144
82	176	0	83
82	652	0	120
82	666	0	126
82	696	0	127
82	711	0	128
82	856	0	128
82	858	0	128
82	860	0	128
82	873	0	128
82	876	0	128
82	886	0	128
82	958	0	129
82	1078	0	133
82	1088	0	133
82	1092	0	133
82	1104	0	133
82	1116	0	133
82	1162	0	133
82	2886	0	141
82	2892	0	141
82	3688	0	142
82	3700	0	142
82	3716	0	142
82	3764	0	142
82	3796	0	142
82	4676	0	142
82	9376	0	143
82	12784	0	144
82	16920	0	144
82	18184	0	144
82	18328	0	144
82	18520	0	144
82	18920	0	144
82	18968	0	144
82	19352	0	144
82	20792	0	144
83	177	0	84
83	311	0	106
83	550	0	117
83	662	0	126
83	857	0	128
83	874	0	128
83	883	0	128
83	904	0	128
83	932	0	128
83	946	0	128
83	948	0	128
83	1098	0	133
83	1150	0	133
83	1932	0	141
83	2194	0	141
83	2206	0	141
83	2992	0	141
83	3664	0	142
83	7960	0	143
83	9832	0	143
83	12688	0	144
83	14208	0	144
83	14360	0	144
83	14440	0	144
83	14464	0	144
83	18088	0	144
83	18440	0	144
83	19112	0	144
83	20712	0	144
84	180	0	85
84	313	0	106
84	673	0	127
84	707	0	128
84	803	0	128
84	813	0	128
84	855	0	128
84	879	0	128
84	927	0	128
84	938	0	128
84	950	0	128
84	964	0	129
84	1084	0	133
84	1100	0	133
84	1154	0	133
84	1170	0	133
84	1946	0	141
84	2186	0	141
84	2200	0	141
84	2888	0	141
84	3668	0	142
84	3892	0	142
84	4672	0	142
84	4708	0	142
84	7112	0	143
84	9952	0	143
84	12672	0	144
84	14288	0	144
84	14344	0	144
84	15128	0	144
84	18248	0	144
84	19384	0	144
85	182	0	86
85	186	0	87
85	188	0	88
85	309	0	105
85	889	0	128
85	934	0	128
85	961	0	129
85	1746	0	141
85	2174	0	141
85	2226	0	141
85	2230	0	141
85	2876	0	141
85	2976	0	141
85	3708	0	142
85	3732	0	142
85	7144	0	143
85	7984	0	143
85	8336	0	143
85	8384	0	143
85	10000	0	143
85	12704	0	144
85	14232	0	144
85	14376	0	144
85	14472	0	144
85	18136	0	144
86	183	0	87
86	307	0	104
86	315	0	106
86	368	0	110
86	686	0	127
86	949	0	128
86	1102	0	133
86	1124	0	133
86	1934	0	141
86	2222	0	141
86	2412	0	141
86	2878	0	141
86	2884	0	141
86	2980	0	141
86	3704	0	142
86	3712	0	142
86	3788	0	142
86	3916	0	142
86	3936	0	142
86	4460	0	142
86	4712	0	142
86	8360	0	143
86	11376	0	144
86	12752	0	144
86	14144	0	144
86	14392	0	144
86	16808	0	144
86	18120	0	144
86	18152	0	144
86	20696	0	144
87	187	0	88
87	19032	0	144
88	192	0	89
88	239	0	100
88	260	0	101
88	276	0	101
88	382	0	111
88	725	0	128
88	748	0	128
88	1182	0	133
88	1188	0	133
88	1270	0	135
88	1322	0	137
88	1364	0	137
88	1400	0	137
88	1682	0	140
88	1694	0	140
88	1740	0	141
88	1776	0	141
88	1858	0	141
88	2398	0	141
88	2516	0	141
88	2526	0	141
88	2790	0	141
88	3160	0	142
88	3508	0	142
88	4596	0	142
88	4796	0	142
88	4908	0	143
88	4928	0	143
88	5304	0	143
88	5604	0	143
88	5620	0	143
88	6036	0	143
88	6312	0	143
88	7424	0	143
88	8728	0	143
88	9160	0	143
88	10672	0	143
88	12088	0	144
88	12992	0	144
88	14816	0	144
88	20408	0	144
89	201	0	90
89	320	0	106
89	448	0	114
89	723	0	128
89	836	0	128
89	1282	0	135
89	1324	0	137
89	1396	0	137
89	1538	0	137
89	1562	0	137
89	1676	0	140
89	1720	0	141
89	1728	0	141
89	1752	0	141
89	1756	0	141
89	1876	0	141
89	2048	0	141
89	2296	0	141
89	2708	0	141
89	2784	0	141
89	3008	0	141
89	3532	0	142
89	3544	0	142
89	4172	0	142
89	4728	0	142
89	5160	0	143
89	5320	0	143
89	5680	0	143
89	6060	0	143
89	6220	0	143
89	6236	0	143
89	6252	0	143
89	6260	0	143
89	6416	0	143
89	7232	0	143
89	7712	0	143
89	7776	0	143
89	9040	0	143
89	9104	0	143
89	9336	0	143
89	9720	0	143
89	10544	0	143
89	10608	0	143
89	10872	0	144
89	11344	0	144
89	11672	0	144
89	11696	0	144
89	12136	0	144
89	12392	0	144
89	13936	0	144
89	14560	0	144
89	17720	0	144
89	17944	0	144
89	19432	0	144
89	19720	0	144
89	21704	0	144
90	208	0	91
90	220	0	95
90	251	0	100
90	255	0	100
90	425	0	113
90	454	0	114
90	463	0	114
90	617	0	119
90	735	0	128
90	799	0	128
90	819	0	128
90	840	0	128
90	978	0	129
90	1048	0	129
90	1176	0	133
90	1738	0	141
90	1810	0	141
90	1840	0	141
90	1958	0	141
90	1970	0	141
90	2054	0	141
90	2060	0	141
90	2078	0	141
90	2392	0	141
90	2448	0	141
90	2462	0	141
90	2814	0	141
90	3080	0	142
90	3148	0	142
90	3208	0	142
90	3412	0	142
90	3420	0	142
90	3828	0	142
90	3976	0	142
90	4104	0	142
90	4208	0	142
90	4240	0	142
90	4480	0	142
90	4528	0	142
90	5200	0	143
90	5300	0	143
90	5528	0	143
90	5728	0	143
90	6012	0	143
90	6128	0	143
90	6432	0	143
90	6584	0	143
90	6592	0	143
90	6644	0	143
90	6812	0	143
90	7048	0	143
90	7264	0	143
90	7808	0	143
90	8096	0	143
90	8904	0	143
90	9080	0	143
90	9208	0	143
90	11176	0	144
90	11320	0	144
90	11976	0	144
90	12080	0	144
90	12224	0	144
90	12264	0	144
90	12504	0	144
90	13640	0	144
90	15336	0	144
90	17912	0	144
90	20264	0	144
90	20424	0	144
91	211	0	92
91	226	0	96
91	290	0	102
91	405	0	113
91	830	0	128
91	996	0	129
91	1290	0	135
91	1300	0	135
91	1866	0	141
91	4004	0	142
91	4404	0	142
91	4560	0	142
91	5032	0	143
91	5456	0	143
91	5972	0	143
91	6512	0	143
91	7040	0	143
91	8920	0	143
91	8952	0	143
91	10224	0	143
91	13848	0	144
91	14864	0	144
91	14880	0	144
91	21416	0	144
92	213	0	93
92	227	0	96
92	297	0	102
92	646	0	119
92	842	0	128
92	997	0	129
92	1248	0	135
92	1254	0	135
92	2812	0	141
92	3256	0	142
92	3280	0	142
92	3352	0	142
92	4000	0	142
92	5252	0	143
92	6528	0	143
92	10232	0	143
93	214	0	94
93	258	0	101
93	273	0	101
93	407	0	113
93	511	0	114
93	532	0	114
93	743	0	128
93	1178	0	133
93	2742	0	141
93	2828	0	141
93	3324	0	142
93	3336	0	142
93	3360	0	142
93	3416	0	142
93	4008	0	142
93	4144	0	142
93	4544	0	142
93	4864	0	143
93	5280	0	143
93	5364	0	143
93	5852	0	143
93	5992	0	143
93	6204	0	143
93	9184	0	143
93	9536	0	143
93	13344	0	144
93	13656	0	144
93	13840	0	144
93	13864	0	144
93	17176	0	144
94	215	0	95
94	296	0	102
94	510	0	114
94	1252	0	135
94	2020	0	141
94	2550	0	141
94	2624	0	141
94	2756	0	141
94	5636	0	143
94	5808	0	143
94	6212	0	143
94	6772	0	143
94	8840	0	143
94	12280	0	144
94	14856	0	144
94	21256	0	144
95	221	0	96
95	513	0	114
95	564	0	118
95	1558	0	137
95	2266	0	141
95	2318	0	141
95	2346	0	141
95	2540	0	141
95	2552	0	141
95	4128	0	142
95	4148	0	142
95	4900	0	143
95	5452	0	143
95	5976	0	143
95	6300	0	143
95	6652	0	143
95	6756	0	143
95	8200	0	143
95	8912	0	143
95	14872	0	144
95	16216	0	144
95	17160	0	144
95	21432	0	144
96	228	0	97
96	1868	0	141
96	2556	0	141
96	3212	0	142
96	4580	0	142
96	4868	0	143
96	5736	0	143
96	5744	0	143
96	5880	0	143
96	6188	0	143
96	8936	0	143
96	8960	0	143
96	9280	0	143
96	9296	0	143
97	230	0	98
97	267	0	101
97	300	0	102
97	358	0	110
97	507	0	114
97	641	0	119
97	728	0	128
97	815	0	128
97	848	0	128
97	1030	0	129
97	1036	0	129
97	1418	0	137
97	1642	0	140
97	1680	0	140
97	1788	0	141
97	1896	0	141
97	2086	0	141
97	2602	0	141
97	2686	0	141
97	4216	0	142
97	4296	0	142
97	5312	0	143
97	5340	0	143
97	5820	0	143
97	6144	0	143
97	6328	0	143
97	6612	0	143
97	7864	0	143
97	8088	0	143
97	11432	0	144
97	11832	0	144
97	14064	0	144
97	19896	0	144
97	22088	0	144
97	22184	0	144
98	236	0	99
98	344	0	109
98	388	0	112
98	400	0	113
98	402	0	113
98	523	0	114
98	558	0	118
98	585	0	118
98	716	0	128
98	1510	0	137
98	1734	0	141
98	2498	0	141
98	2802	0	141
98	2932	0	141
98	2944	0	141
98	3024	0	141
98	3136	0	142
98	3464	0	142
98	3856	0	142
98	5916	0	143
98	6352	0	143
98	6380	0	143
98	6676	0	143
98	6684	0	143
98	7328	0	143
98	8288	0	143
98	10280	0	143
98	12880	0	144
98	13176	0	144
98	13440	0	144
98	13560	0	144
98	14128	0	144
98	15960	0	144
99	237	0	100
99	389	0	112
99	503	0	114
99	539	0	114
99	754	0	128
99	776	0	128
99	1014	0	129
99	1058	0	131
99	1408	0	137
99	1700	0	140
99	1708	0	141
99	2488	0	141
99	2570	0	141
99	3392	0	142
99	5572	0	143
99	6456	0	143
99	7008	0	143
99	7360	0	143
99	8632	0	143
99	10320	0	143
99	11288	0	144
99	16360	0	144
99	21192	0	144
100	256	0	101
100	512	0	114
100	567	0	118
100	844	0	128
100	1212	0	133
100	1306	0	135
100	1470	0	137
100	1552	0	137
100	1556	0	137
100	1852	0	141
100	2350	0	141
100	2610	0	141
100	2620	0	141
100	2750	0	141
100	3232	0	142
100	3272	0	142
100	5144	0	143
100	5260	0	143
100	5732	0	143
100	5740	0	143
100	6184	0	143
100	6816	0	143
100	13328	0	144
100	13680	0	144
100	13872	0	144
100	14728	0	144
100	17144	0	144
100	19768	0	144
101	281	0	102
101	288	0	102
101	325	0	106
101	328	0	106
101	516	0	114
101	791	0	128
101	1050	0	129
101	1228	0	135
101	2628	0	141
101	2740	0	141
101	2754	0	141
101	3236	0	142
101	4244	0	142
101	4584	0	142
101	4876	0	143
101	5256	0	143
101	5464	0	143
101	5628	0	143
101	6176	0	143
101	6208	0	143
101	6508	0	143
101	6516	0	143
101	6640	0	143
101	6648	0	143
101	6660	0	143
101	8192	0	143
101	8824	0	143
101	12272	0	144
101	13312	0	144
101	13816	0	144
101	14848	0	144
102	303	0	103
102	442	0	114
102	460	0	114
102	472	0	114
102	587	0	118
102	610	0	119
102	912	0	128
102	1026	0	129
102	1260	0	135
102	1316	0	137
102	1524	0	137
102	1736	0	141
102	1768	0	141
102	1818	0	141
102	1990	0	141
102	2090	0	141
102	2292	0	141
102	2780	0	141
102	2836	0	141
102	4120	0	142
102	4300	0	142
102	5428	0	143
102	5576	0	143
102	5616	0	143
102	5788	0	143
102	5828	0	143
102	5896	0	143
102	5932	0	143
102	6120	0	143
102	6320	0	143
102	6628	0	143
102	6788	0	143
102	6804	0	143
102	8040	0	143
102	8760	0	143
102	9032	0	143
102	9928	0	143
102	11008	0	144
102	11720	0	144
102	11744	0	144
102	11928	0	144
102	12072	0	144
102	12232	0	144
102	12400	0	144
102	12496	0	144
102	16632	0	144
102	17256	0	144
102	20200	0	144
102	20568	0	144
102	21048	0	144
102	21512	0	144
102	21592	0	144
102	21688	0	144
102	22168	0	144
102	22200	0	144
103	305	0	104
103	808	0	128
103	854	0	128
103	1726	0	141
103	1906	0	141
103	4688	0	142
103	6256	0	143
103	7408	0	143
103	9008	0	143
103	9344	0	143
103	9408	0	143
103	11352	0	144
103	12664	0	144
103	12720	0	144
103	14336	0	144
103	18888	0	144
103	19400	0	144
104	308	0	105
104	1936	0	141
104	2978	0	141
104	4456	0	142
104	8392	0	143
104	14224	0	144
104	18056	0	144
105	310	0	106
105	312	0	106
105	553	0	118
105	695	0	127
105	868	0	128
105	890	0	128
105	1128	0	133
105	1138	0	133
105	1748	0	141
105	1930	0	141
105	2212	0	141
105	2532	0	141
105	2848	0	141
105	3792	0	142
105	3912	0	142
105	3948	0	142
105	4640	0	142
105	4696	0	142
105	7904	0	143
105	8304	0	143
105	9768	0	143
105	9984	0	143
105	11624	0	144
105	14320	0	144
105	14672	0	144
105	14696	0	144
105	16712	0	144
105	16792	0	144
105	18616	0	144
106	339	0	107
106	468	0	114
106	720	0	128
106	785	0	128
106	984	0	129
106	1330	0	137
106	1422	0	137
106	1504	0	137
106	1724	0	141
106	1782	0	141
106	1796	0	141
106	1846	0	141
106	1960	0	141
106	2112	0	141
106	2732	0	141
106	2824	0	141
106	2844	0	141
106	3112	0	142
106	3488	0	142
106	4188	0	142
106	4200	0	142
106	4260	0	142
106	4308	0	142
106	5116	0	143
106	5600	0	143
106	6032	0	143
106	6092	0	143
106	6124	0	143
106	6856	0	143
106	7752	0	143
106	7792	0	143
106	7824	0	143
106	7856	0	143
106	8168	0	143
106	8528	0	143
106	9608	0	143
106	9896	0	143
106	10560	0	143
106	10752	0	143
106	11688	0	144
106	11760	0	144
106	11800	0	144
106	14896	0	144
106	15640	0	144
106	16280	0	144
106	20584	0	144
106	21560	0	144
106	21736	0	144
107	342	0	108
107	540	0	114
107	555	0	118
107	2140	0	141
107	2364	0	141
107	2938	0	141
107	3028	0	141
107	6376	0	143
107	7888	0	143
107	10968	0	144
107	12864	0	144
107	14960	0	144
107	17352	0	144
108	343	0	109
108	391	0	112
108	397	0	112
108	541	0	114
108	1702	0	140
108	2038	0	141
108	2042	0	141
108	2366	0	141
108	2936	0	141
108	3032	0	141
108	3040	0	141
108	3448	0	142
108	6372	0	143
108	6992	0	143
108	10304	0	143
108	10424	0	143
108	10440	0	143
108	10928	0	144
108	10944	0	144
108	13568	0	144
108	13584	0	144
109	347	0	110
109	378	0	111
109	571	0	118
109	578	0	118
109	750	0	128
109	1224	0	135
109	1428	0	137
109	1514	0	137
109	2712	0	141
109	3072	0	142
109	3264	0	142
109	3468	0	142
109	3968	0	142
109	3988	0	142
109	4484	0	142
109	4620	0	142
109	5872	0	143
109	6068	0	143
109	6740	0	143
109	6748	0	143
109	7688	0	143
109	8184	0	143
109	10048	0	143
109	10800	0	143
109	13120	0	144
109	15912	0	144
109	16232	0	144
109	16536	0	144
109	17896	0	144
110	373	0	111
110	393	0	112
110	467	0	114
110	483	0	114
110	714	0	128
110	769	0	128
110	822	0	128
110	1336	0	137
110	1356	0	137
110	1506	0	137
110	1732	0	141
110	1784	0	141
110	1980	0	141
110	2422	0	141
110	2490	0	141
110	2500	0	141
110	2504	0	141
110	3460	0	142
110	4224	0	142
110	4360	0	142
110	5188	0	143
110	5784	0	143
110	6880	0	143
110	7336	0	143
110	7552	0	143
110	8016	0	143
110	8448	0	143
110	8704	0	143
110	9472	0	143
110	9656	0	143
110	10432	0	143
110	10448	0	143
110	10464	0	143
110	10528	0	143
110	13592	0	144
110	14112	0	144
110	14952	0	144
110	18840	0	144
110	19560	0	144
110	19640	0	144
110	19944	0	144
110	20136	0	144
110	21864	0	144
110	22008	0	144
111	386	0	112
111	404	0	113
111	509	0	114
111	566	0	118
111	603	0	119
111	841	0	128
111	1034	0	129
111	1180	0	133
111	1256	0	135
111	1472	0	137
111	1874	0	141
111	2018	0	141
111	2452	0	141
111	2518	0	141
111	2560	0	141
111	3144	0	142
111	4164	0	142
111	4252	0	142
111	4524	0	142
111	5248	0	143
111	5392	0	143
111	5756	0	143
111	6596	0	143
111	7504	0	143
111	9200	0	143
111	10512	0	143
111	11144	0	144
111	12632	0	144
111	13688	0	144
111	13808	0	144
111	19752	0	144
111	22264	0	144
112	399	0	113
112	410	0	113
112	559	0	118
112	1926	0	141
112	2496	0	141
112	2726	0	141
112	2960	0	141
112	3036	0	141
112	3044	0	142
112	3584	0	142
112	3596	0	142
112	4948	0	143
112	4964	0	143
112	5564	0	143
112	5900	0	143
112	6272	0	143
112	6368	0	143
112	8408	0	143
112	8480	0	143
112	10976	0	144
112	11240	0	144
112	11656	0	144
112	12112	0	144
112	13056	0	144
112	14800	0	144
112	17064	0	144
112	17320	0	144
112	17400	0	144
112	17480	0	144
112	17512	0	144
112	19832	0	144
112	20632	0	144
113	429	0	114
113	1586	0	137
113	2358	0	141
113	2566	0	141
113	2930	0	141
113	5548	0	143
113	5556	0	143
113	6896	0	143
113	6980	0	143
113	6988	0	143
113	6996	0	143
113	13048	0	144
113	13432	0	144
113	17848	0	144
114	544	0	115
114	1706	0	141
114	2040	0	141
114	2962	0	141
114	5712	0	143
114	8400	0	143
114	10016	0	143
114	17336	0	144
114	17368	0	144
114	17416	0	144
115	545	0	116
115	810	0	128
115	954	0	129
115	1744	0	141
115	2168	0	141
115	2224	0	141
115	3608	0	142
115	4352	0	142
115	4444	0	142
115	7152	0	143
115	9776	0	143
115	10456	0	143
115	16728	0	144
115	18856	0	144
116	547	0	117
116	684	0	127
116	688	0	127
116	811	0	128
116	965	0	129
116	1158	0	133
116	2880	0	141
116	3720	0	142
116	4452	0	142
116	4652	0	142
116	7216	0	143
116	8368	0	143
116	9392	0	143
116	9824	0	143
116	12792	0	144
116	14240	0	144
116	14488	0	144
116	18232	0	144
117	551	0	118
117	657	0	123
117	670	0	127
117	1068	0	133
117	1074	0	133
117	1110	0	133
117	3672	0	142
117	3800	0	142
117	7936	0	143
117	9960	0	143
117	18264	0	144
117	18296	0	144
117	19000	0	144
117	19192	0	144
117	20744	0	144
118	594	0	119
118	650	0	119
118	731	0	128
118	779	0	128
118	814	0	128
118	825	0	128
118	915	0	128
118	973	0	129
118	1404	0	137
118	1442	0	137
118	1496	0	137
118	1662	0	140
118	2234	0	141
118	2336	0	141
118	2406	0	141
118	2438	0	141
118	2912	0	141
118	3516	0	142
118	3888	0	142
118	4332	0	142
118	5220	0	143
118	5400	0	143
118	5796	0	143
118	6020	0	143
118	6496	0	143
118	6616	0	143
118	7288	0	143
118	7624	0	143
118	7848	0	143
118	8264	0	143
118	9016	0	143
118	9152	0	143
118	9416	0	143
118	10336	0	143
118	10576	0	143
118	11088	0	144
118	12152	0	144
118	12464	0	144
118	12952	0	144
118	15144	0	144
118	16696	0	144
118	17544	0	144
118	18024	0	144
118	19448	0	144
118	20008	0	144
118	21144	0	144
118	21768	0	144
119	651	0	120
119	680	0	127
119	865	0	128
119	2408	0	141
119	4704	0	142
119	9368	0	143
119	9800	0	143
119	9872	0	143
119	11360	0	144
119	12736	0	144
119	16888	0	144
120	653	0	121
120	870	0	128
120	929	0	128
120	951	0	128
120	1126	0	133
120	1160	0	133
120	1168	0	133
120	2172	0	141
120	2334	0	141
120	2850	0	141
120	2860	0	141
120	2896	0	141
120	2968	0	141
120	2974	0	141
120	2984	0	141
120	3696	0	142
120	3784	0	142
120	4448	0	142
120	4656	0	142
120	8000	0	143
120	8328	0	143
120	8344	0	143
120	9976	0	143
120	11392	0	144
120	11640	0	144
120	15112	0	144
120	18040	0	144
120	18600	0	144
120	18680	0	144
121	655	0	122
121	667	0	126
121	693	0	127
121	702	0	127
121	705	0	128
121	1942	0	141
121	2868	0	141
121	18344	0	144
121	19064	0	144
121	20808	0	144
122	656	0	123
122	859	0	128
122	901	0	128
122	940	0	128
122	1080	0	133
122	1114	0	133
122	2866	0	141
122	3636	0	142
122	19016	0	144
122	19176	0	144
122	19208	0	144
123	658	0	124
123	692	0	127
123	701	0	127
123	861	0	128
123	863	0	128
123	900	0	128
123	1076	0	133
123	1112	0	133
123	3632	0	142
123	3684	0	142
123	9848	0	143
123	14176	0	144
123	18280	0	144
123	18392	0	144
123	18488	0	144
123	19160	0	144
123	19240	0	144
124	659	0	125
124	710	0	128
124	864	0	128
124	884	0	128
124	894	0	128
124	947	0	128
124	1094	0	133
124	3656	0	142
124	7944	0	143
124	9352	0	143
124	14264	0	144
124	14352	0	144
124	18904	0	144
124	19080	0	144
124	19320	0	144
125	660	0	126
125	665	0	126
125	674	0	127
125	678	0	127
125	877	0	128
125	937	0	128
125	1948	0	141
125	2704	0	141
125	2890	0	141
125	2988	0	141
125	4680	0	142
125	14304	0	144
125	16936	0	144
126	669	0	127
126	709	0	128
126	805	0	128
126	878	0	128
126	895	0	128
126	897	0	128
126	902	0	128
126	1122	0	133
126	1142	0	133
126	2182	0	141
126	2196	0	141
126	2862	0	141
126	3620	0	142
126	3776	0	142
126	3932	0	142
126	3940	0	142
126	4648	0	142
126	9360	0	143
126	12680	0	144
126	12760	0	144
126	15016	0	144
126	16776	0	144
126	18376	0	144
126	18472	0	144
126	18504	0	144
126	20856	0	144
127	704	0	128
127	882	0	128
127	896	0	128
127	903	0	128
127	963	0	129
127	1072	0	133
127	1082	0	133
127	1940	0	141
127	2204	0	141
127	3628	0	142
127	3652	0	142
127	3680	0	142
127	3928	0	142
127	12776	0	144
127	14168	0	144
127	19224	0	144
128	952	0	129
128	2898	0	141
128	2902	0	141
128	7160	0	143
128	7200	0	143
129	1216	0	133
129	1220	0	134
129	1604	0	139
129	1610	0	140
129	6752	0	143
129	6908	0	143
129	6924	0	143
129	6968	0	143
129	6984	0	143
129	13032	0	144
130	1218	0	134
130	1588	0	137
130	6900	0	143
130	6920	0	143
130	6928	0	143
131	1222	0	135
131	1592	0	138
131	6956	0	143
131	13392	0	144
131	17864	0	144
132	1590	0	138
132	1600	0	139
132	1608	0	140
132	6904	0	143
132	6940	0	143
132	13408	0	144
133	1594	0	139
133	6912	0	143
134	1596	0	139
134	6936	0	143
134	6948	0	143
134	6972	0	143
134	13400	0	144
134	13416	0	144
135	1598	0	139
135	1602	0	139
135	6916	0	143
135	6960	0	143
136	1606	0	140
136	6932	0	143
136	6952	0	143
136	6964	0	143
137	1704	0	141
137	2036	0	141
137	3452	0	142
137	10312	0	143
137	10920	0	144
137	10960	0	144
137	11280	0	144
137	12824	0	144
137	17304	0	144
137	17384	0	144
137	17432	0	144
137	17496	0	144
137	19576	0	144
137	20328	0	144
138	2900	0	141
138	7168	0	143
138	7184	0	143
139	6944	0	143
139	6976	0	143
139	13424	0	144
140	7176	0	143
140	7192	0	143
141	14216	0	144

