version 3
run General-412-20250917-22:37:10-66641
attr configname General
attr datetime 20250917-22:37:10
attr datetimef 20250917-223710
attr experiment General
attr inifile omnetpp.ini
attr iterationvars ""
attr iterationvarsd ""
attr iterationvarsf ""
attr measurement ""
attr network RGG
attr processid 66641
attr repetition 412
attr replication #412
attr resultdir results
attr runnumber 412
attr seedset 412
config network RGG
config seed-set 412
config num-rngs 1
config sim-time-limit 10s
config repeat 500
config **.node[*].xCor "uniform(0.0, 1.0, 0)"
config **.node[*].yCor "uniform(0.0, 1.0, 0)"
config *.numWalkers 1
config *.numNodes 100
config *.enableDuplication true
config *.rc 0.25

par RGG.node[0].port$o[0].channel typename "\"ned.IdealChannel\""
par RGG.node[1].port$o[0].channel typename "\"ned.IdealChannel\""
par RGG.node[0].port$o[1].channel typename "\"ned.IdealChannel\""
par RGG.node[12].port$o[0].channel typename "\"ned.IdealChannel\""
par RGG.node[0].port$o[2].channel typename "\"ned.IdealChannel\""
par RGG.node[46].port$o[0].channel typename "\"ned.IdealChannel\""
par RGG.node[0].port$o[3].channel typename "\"ned.IdealChannel\""
par RGG.node[53].port$o[0].channel typename "\"ned.IdealChannel\""
par RGG.node[0].port$o[4].channel typename "\"ned.IdealChannel\""
par RGG.node[62].port$o[0].channel typename "\"ned.IdealChannel\""
par RGG.node[0].port$o[5].channel typename "\"ned.IdealChannel\""
par RGG.node[70].port$o[0].channel typename "\"ned.IdealChannel\""
par RGG.node[0].port$o[6].channel typename "\"ned.IdealChannel\""
par RGG.node[71].port$o[0].channel typename "\"ned.IdealChannel\""
par RGG.node[0].port$o[7].channel typename "\"ned.IdealChannel\""
par RGG.node[84].port$o[0].channel typename "\"ned.IdealChannel\""
par RGG.node[0].port$o[8].channel typename "\"ned.IdealChannel\""
par RGG.node[85].port$o[0].channel typename "\"ned.IdealChannel\""
par RGG.node[0].port$o[9].channel typename "\"ned.IdealChannel\""
par RGG.node[88].port$o[0].channel typename "\"ned.IdealChannel\""
par RGG.node[0].port$o[10].channel typename "\"ned.IdealChannel\""
par RGG.node[90].port$o[0].channel typename "\"ned.IdealChannel\""
par RGG.node[0].port$o[11].channel typename "\"ned.IdealChannel\""
par RGG.node[91].port$o[0].channel typename "\"ned.IdealChannel\""
par RGG.node[0].port$o[12].channel typename "\"ned.IdealChannel\""
par RGG.node[93].port$o[0].channel typename "\"ned.IdealChannel\""
par RGG.node[1].port$o[1].channel typename "\"ned.IdealChannel\""
par RGG.node[6].port$o[0].channel typename "\"ned.IdealChannel\""
par RGG.node[1].port$o[2].channel typename "\"ned.IdealChannel\""
par RGG.node[12].port$o[1].channel typename "\"ned.IdealChannel\""
par RGG.node[1].port$o[3].channel typename "\"ned.IdealChannel\""
par RGG.node[13].port$o[0].channel typename "\"ned.IdealChannel\""
par RGG.node[1].port$o[4].channel typename "\"ned.IdealChannel\""
par RGG.node[21].port$o[0].channel typename "\"ned.IdealChannel\""
par RGG.node[1].port$o[5].channel typename "\"ned.IdealChannel\""
par RGG.node[27].port$o[0].channel typename "\"ned.IdealChannel\""
par RGG.node[1].port$o[6].channel typename "\"ned.IdealChannel\""
par RGG.node[32].port$o[0].channel typename "\"ned.IdealChannel\""
par RGG.node[1].port$o[7].channel typename "\"ned.IdealChannel\""
par RGG.node[46].port$o[1].channel typename "\"ned.IdealChannel\""
par RGG.node[1].port$o[8].channel typename "\"ned.IdealChannel\""
par RGG.node[51].port$o[0].channel typename "\"ned.IdealChannel\""
par RGG.node[1].port$o[9].channel typename "\"ned.IdealChannel\""
par RGG.node[53].port$o[1].channel typename "\"ned.IdealChannel\""
par RGG.node[1].port$o[10].channel typename "\"ned.IdealChannel\""
par RGG.node[55].port$o[0].channel typename "\"ned.IdealChannel\""
par RGG.node[1].port$o[11].channel typename "\"ned.IdealChannel\""
par RGG.node[62].port$o[1].channel typename "\"ned.IdealChannel\""
par RGG.node[1].port$o[12].channel typename "\"ned.IdealChannel\""
par RGG.node[70].port$o[1].channel typename "\"ned.IdealChannel\""
par RGG.node[1].port$o[13].channel typename "\"ned.IdealChannel\""
par RGG.node[71].port$o[1].channel typename "\"ned.IdealChannel\""
par RGG.node[1].port$o[14].channel typename "\"ned.IdealChannel\""
par RGG.node[82].port$o[0].channel typename "\"ned.IdealChannel\""
par RGG.node[1].port$o[15].channel typename "\"ned.IdealChannel\""
par RGG.node[85].port$o[1].channel typename "\"ned.IdealChannel\""
par RGG.node[1].port$o[16].channel typename "\"ned.IdealChannel\""
par RGG.node[90].port$o[1].channel typename "\"ned.IdealChannel\""
par RGG.node[1].port$o[17].channel typename "\"ned.IdealChannel\""
par RGG.node[91].port$o[1].channel typename "\"ned.IdealChannel\""
par RGG.node[1].port$o[18].channel typename "\"ned.IdealChannel\""
par RGG.node[93].port$o[1].channel typename "\"ned.IdealChannel\""
par RGG.node[1].port$o[19].channel typename "\"ned.IdealChannel\""
par RGG.node[97].port$o[0].channel typename "\"ned.IdealChannel\""
par RGG.node[2].port$o[0].channel typename "\"ned.IdealChannel\""
par RGG.node[36].port$o[0].channel typename "\"ned.IdealChannel\""
par RGG.node[2].port$o[1].channel typename "\"ned.IdealChannel\""
par RGG.node[37].port$o[0].channel typename "\"ned.IdealChannel\""
par RGG.node[2].port$o[2].channel typename "\"ned.IdealChannel\""
par RGG.node[60].port$o[0].channel typename "\"ned.IdealChannel\""
par RGG.node[2].port$o[3].channel typename "\"ned.IdealChannel\""
par RGG.node[66].port$o[0].channel typename "\"ned.IdealChannel\""
par RGG.node[2].port$o[4].channel typename "\"ned.IdealChannel\""
par RGG.node[69].port$o[0].channel typename "\"ned.IdealChannel\""
par RGG.node[2].port$o[5].channel typename "\"ned.IdealChannel\""
par RGG.node[72].port$o[0].channel typename "\"ned.IdealChannel\""
par RGG.node[2].port$o[6].channel typename "\"ned.IdealChannel\""
par RGG.node[76].port$o[0].channel typename "\"ned.IdealChannel\""
par RGG.node[2].port$o[7].channel typename "\"ned.IdealChannel\""
par RGG.node[78].port$o[0].channel typename "\"ned.IdealChannel\""
par RGG.node[3].port$o[0].channel typename "\"ned.IdealChannel\""
par RGG.node[5].port$o[0].channel typename "\"ned.IdealChannel\""
par RGG.node[3].port$o[1].channel typename "\"ned.IdealChannel\""
par RGG.node[23].port$o[0].channel typename "\"ned.IdealChannel\""
par RGG.node[3].port$o[2].channel typename "\"ned.IdealChannel\""
par RGG.node[26].port$o[0].channel typename "\"ned.IdealChannel\""
par RGG.node[3].port$o[3].channel typename "\"ned.IdealChannel\""
par RGG.node[35].port$o[0].channel typename "\"ned.IdealChannel\""
par RGG.node[3].port$o[4].channel typename "\"ned.IdealChannel\""
par RGG.node[68].port$o[0].channel typename "\"ned.IdealChannel\""
par RGG.node[3].port$o[5].channel typename "\"ned.IdealChannel\""
par RGG.node[87].port$o[0].channel typename "\"ned.IdealChannel\""
par RGG.node[3].port$o[6].channel typename "\"ned.IdealChannel\""
par RGG.node[89].port$o[0].channel typename "\"ned.IdealChannel\""
par RGG.node[4].port$o[0].channel typename "\"ned.IdealChannel\""
par RGG.node[7].port$o[0].channel typename "\"ned.IdealChannel\""
par RGG.node[4].port$o[1].channel typename "\"ned.IdealChannel\""
par RGG.node[17].port$o[0].channel typename "\"ned.IdealChannel\""
par RGG.node[4].port$o[2].channel typename "\"ned.IdealChannel\""
par RGG.node[22].port$o[0].channel typename "\"ned.IdealChannel\""
par RGG.node[4].port$o[3].channel typename "\"ned.IdealChannel\""
par RGG.node[28].port$o[0].channel typename "\"ned.IdealChannel\""
par RGG.node[4].port$o[4].channel typename "\"ned.IdealChannel\""
par RGG.node[29].port$o[0].channel typename "\"ned.IdealChannel\""
par RGG.node[4].port$o[5].channel typename "\"ned.IdealChannel\""
par RGG.node[30].port$o[0].channel typename "\"ned.IdealChannel\""
par RGG.node[4].port$o[6].channel typename "\"ned.IdealChannel\""
par RGG.node[31].port$o[0].channel typename "\"ned.IdealChannel\""
par RGG.node[4].port$o[7].channel typename "\"ned.IdealChannel\""
par RGG.node[34].port$o[0].channel typename "\"ned.IdealChannel\""
par RGG.node[4].port$o[8].channel typename "\"ned.IdealChannel\""
par RGG.node[41].port$o[0].channel typename "\"ned.IdealChannel\""
par RGG.node[4].port$o[9].channel typename "\"ned.IdealChannel\""
par RGG.node[43].port$o[0].channel typename "\"ned.IdealChannel\""
par RGG.node[4].port$o[10].channel typename "\"ned.IdealChannel\""
par RGG.node[47].port$o[0].channel typename "\"ned.IdealChannel\""
par RGG.node[4].port$o[11].channel typename "\"ned.IdealChannel\""
par RGG.node[99].port$o[0].channel typename "\"ned.IdealChannel\""
par RGG.node[5].port$o[1].channel typename "\"ned.IdealChannel\""
par RGG.node[11].port$o[0].channel typename "\"ned.IdealChannel\""
par RGG.node[5].port$o[2].channel typename "\"ned.IdealChannel\""
par RGG.node[15].port$o[0].channel typename "\"ned.IdealChannel\""
par RGG.node[5].port$o[3].channel typename "\"ned.IdealChannel\""
par RGG.node[22].port$o[1].channel typename "\"ned.IdealChannel\""
par RGG.node[5].port$o[4].channel typename "\"ned.IdealChannel\""
par RGG.node[23].port$o[1].channel typename "\"ned.IdealChannel\""
par RGG.node[5].port$o[5].channel typename "\"ned.IdealChannel\""
par RGG.node[26].port$o[1].channel typename "\"ned.IdealChannel\""
par RGG.node[5].port$o[6].channel typename "\"ned.IdealChannel\""
par RGG.node[28].port$o[1].channel typename "\"ned.IdealChannel\""
par RGG.node[5].port$o[7].channel typename "\"ned.IdealChannel\""
par RGG.node[30].port$o[1].channel typename "\"ned.IdealChannel\""
par RGG.node[5].port$o[8].channel typename "\"ned.IdealChannel\""
par RGG.node[31].port$o[1].channel typename "\"ned.IdealChannel\""
par RGG.node[5].port$o[9].channel typename "\"ned.IdealChannel\""
par RGG.node[35].port$o[1].channel typename "\"ned.IdealChannel\""
par RGG.node[5].port$o[10].channel typename "\"ned.IdealChannel\""
par RGG.node[43].port$o[1].channel typename "\"ned.IdealChannel\""
par RGG.node[5].port$o[11].channel typename "\"ned.IdealChannel\""
par RGG.node[47].port$o[1].channel typename "\"ned.IdealChannel\""
par RGG.node[5].port$o[12].channel typename "\"ned.IdealChannel\""
par RGG.node[49].port$o[0].channel typename "\"ned.IdealChannel\""
par RGG.node[5].port$o[13].channel typename "\"ned.IdealChannel\""
par RGG.node[68].port$o[1].channel typename "\"ned.IdealChannel\""
par RGG.node[5].port$o[14].channel typename "\"ned.IdealChannel\""
par RGG.node[89].port$o[1].channel typename "\"ned.IdealChannel\""
par RGG.node[6].port$o[1].channel typename "\"ned.IdealChannel\""
par RGG.node[8].port$o[0].channel typename "\"ned.IdealChannel\""
par RGG.node[6].port$o[2].channel typename "\"ned.IdealChannel\""
par RGG.node[9].port$o[0].channel typename "\"ned.IdealChannel\""
par RGG.node[6].port$o[3].channel typename "\"ned.IdealChannel\""
par RGG.node[12].port$o[2].channel typename "\"ned.IdealChannel\""
par RGG.node[6].port$o[4].channel typename "\"ned.IdealChannel\""
par RGG.node[13].port$o[1].channel typename "\"ned.IdealChannel\""
par RGG.node[6].port$o[5].channel typename "\"ned.IdealChannel\""
par RGG.node[21].port$o[1].channel typename "\"ned.IdealChannel\""
par RGG.node[6].port$o[6].channel typename "\"ned.IdealChannel\""
par RGG.node[27].port$o[1].channel typename "\"ned.IdealChannel\""
par RGG.node[6].port$o[7].channel typename "\"ned.IdealChannel\""
par RGG.node[38].port$o[0].channel typename "\"ned.IdealChannel\""
par RGG.node[6].port$o[8].channel typename "\"ned.IdealChannel\""
par RGG.node[46].port$o[2].channel typename "\"ned.IdealChannel\""
par RGG.node[6].port$o[9].channel typename "\"ned.IdealChannel\""
par RGG.node[51].port$o[1].channel typename "\"ned.IdealChannel\""
par RGG.node[6].port$o[10].channel typename "\"ned.IdealChannel\""
par RGG.node[55].port$o[1].channel typename "\"ned.IdealChannel\""
par RGG.node[6].port$o[11].channel typename "\"ned.IdealChannel\""
par RGG.node[63].port$o[0].channel typename "\"ned.IdealChannel\""
par RGG.node[6].port$o[12].channel typename "\"ned.IdealChannel\""
par RGG.node[67].port$o[0].channel typename "\"ned.IdealChannel\""
par RGG.node[6].port$o[13].channel typename "\"ned.IdealChannel\""
par RGG.node[71].port$o[2].channel typename "\"ned.IdealChannel\""
par RGG.node[6].port$o[14].channel typename "\"ned.IdealChannel\""
par RGG.node[74].port$o[0].channel typename "\"ned.IdealChannel\""
par RGG.node[6].port$o[15].channel typename "\"ned.IdealChannel\""
par RGG.node[80].port$o[0].channel typename "\"ned.IdealChannel\""
par RGG.node[6].port$o[16].channel typename "\"ned.IdealChannel\""
par RGG.node[83].port$o[0].channel typename "\"ned.IdealChannel\""
par RGG.node[6].port$o[17].channel typename "\"ned.IdealChannel\""
par RGG.node[85].port$o[2].channel typename "\"ned.IdealChannel\""
par RGG.node[6].port$o[18].channel typename "\"ned.IdealChannel\""
par RGG.node[86].port$o[0].channel typename "\"ned.IdealChannel\""
par RGG.node[6].port$o[19].channel typename "\"ned.IdealChannel\""
par RGG.node[90].port$o[2].channel typename "\"ned.IdealChannel\""
par RGG.node[6].port$o[20].channel typename "\"ned.IdealChannel\""
par RGG.node[91].port$o[2].channel typename "\"ned.IdealChannel\""
par RGG.node[6].port$o[21].channel typename "\"ned.IdealChannel\""
par RGG.node[96].port$o[0].channel typename "\"ned.IdealChannel\""
par RGG.node[6].port$o[22].channel typename "\"ned.IdealChannel\""
par RGG.node[97].port$o[1].channel typename "\"ned.IdealChannel\""
par RGG.node[6].port$o[23].channel typename "\"ned.IdealChannel\""
par RGG.node[98].port$o[0].channel typename "\"ned.IdealChannel\""
par RGG.node[7].port$o[1].channel typename "\"ned.IdealChannel\""
par RGG.node[17].port$o[1].channel typename "\"ned.IdealChannel\""
par RGG.node[7].port$o[2].channel typename "\"ned.IdealChannel\""
par RGG.node[19].port$o[0].channel typename "\"ned.IdealChannel\""
par RGG.node[7].port$o[3].channel typename "\"ned.IdealChannel\""
par RGG.node[26].port$o[2].channel typename "\"ned.IdealChannel\""
par RGG.node[7].port$o[4].channel typename "\"ned.IdealChannel\""
par RGG.node[30].port$o[2].channel typename "\"ned.IdealChannel\""
par RGG.node[7].port$o[5].channel typename "\"ned.IdealChannel\""
par RGG.node[31].port$o[2].channel typename "\"ned.IdealChannel\""
par RGG.node[7].port$o[6].channel typename "\"ned.IdealChannel\""
par RGG.node[43].port$o[2].channel typename "\"ned.IdealChannel\""
par RGG.node[7].port$o[7].channel typename "\"ned.IdealChannel\""
par RGG.node[59].port$o[0].channel typename "\"ned.IdealChannel\""
par RGG.node[7].port$o[8].channel typename "\"ned.IdealChannel\""
par RGG.node[64].port$o[0].channel typename "\"ned.IdealChannel\""
par RGG.node[8].port$o[1].channel typename "\"ned.IdealChannel\""
par RGG.node[9].port$o[1].channel typename "\"ned.IdealChannel\""
par RGG.node[8].port$o[2].channel typename "\"ned.IdealChannel\""
par RGG.node[10].port$o[0].channel typename "\"ned.IdealChannel\""
par RGG.node[8].port$o[3].channel typename "\"ned.IdealChannel\""
par RGG.node[13].port$o[2].channel typename "\"ned.IdealChannel\""
par RGG.node[8].port$o[4].channel typename "\"ned.IdealChannel\""
par RGG.node[14].port$o[0].channel typename "\"ned.IdealChannel\""
par RGG.node[8].port$o[5].channel typename "\"ned.IdealChannel\""
par RGG.node[21].port$o[2].channel typename "\"ned.IdealChannel\""
par RGG.node[8].port$o[6].channel typename "\"ned.IdealChannel\""
par RGG.node[27].port$o[2].channel typename "\"ned.IdealChannel\""
par RGG.node[8].port$o[7].channel typename "\"ned.IdealChannel\""
par RGG.node[33].port$o[0].channel typename "\"ned.IdealChannel\""
par RGG.node[8].port$o[8].channel typename "\"ned.IdealChannel\""
par RGG.node[38].port$o[1].channel typename "\"ned.IdealChannel\""
par RGG.node[8].port$o[9].channel typename "\"ned.IdealChannel\""
par RGG.node[40].port$o[0].channel typename "\"ned.IdealChannel\""
par RGG.node[8].port$o[10].channel typename "\"ned.IdealChannel\""
par RGG.node[45].port$o[0].channel typename "\"ned.IdealChannel\""
par RGG.node[8].port$o[11].channel typename "\"ned.IdealChannel\""
par RGG.node[46].port$o[3].channel typename "\"ned.IdealChannel\""
par RGG.node[8].port$o[12].channel typename "\"ned.IdealChannel\""
par RGG.node[49].port$o[1].channel typename "\"ned.IdealChannel\""
par RGG.node[8].port$o[13].channel typename "\"ned.IdealChannel\""
par RGG.node[51].port$o[2].channel typename "\"ned.IdealChannel\""
par RGG.node[8].port$o[14].channel typename "\"ned.IdealChannel\""
par RGG.node[52].port$o[0].channel typename "\"ned.IdealChannel\""
par RGG.node[8].port$o[15].channel typename "\"ned.IdealChannel\""
par RGG.node[55].port$o[2].channel typename "\"ned.IdealChannel\""
par RGG.node[8].port$o[16].channel typename "\"ned.IdealChannel\""
par RGG.node[56].port$o[0].channel typename "\"ned.IdealChannel\""
par RGG.node[8].port$o[17].channel typename "\"ned.IdealChannel\""
par RGG.node[67].port$o[1].channel typename "\"ned.IdealChannel\""
par RGG.node[8].port$o[18].channel typename "\"ned.IdealChannel\""
par RGG.node[73].port$o[0].channel typename "\"ned.IdealChannel\""
par RGG.node[8].port$o[19].channel typename "\"ned.IdealChannel\""
par RGG.node[74].port$o[1].channel typename "\"ned.IdealChannel\""
par RGG.node[8].port$o[20].channel typename "\"ned.IdealChannel\""
par RGG.node[77].port$o[0].channel typename "\"ned.IdealChannel\""
par RGG.node[8].port$o[21].channel typename "\"ned.IdealChannel\""
par RGG.node[80].port$o[1].channel typename "\"ned.IdealChannel\""
par RGG.node[8].port$o[22].channel typename "\"ned.IdealChannel\""
par RGG.node[83].port$o[1].channel typename "\"ned.IdealChannel\""
par RGG.node[8].port$o[23].channel typename "\"ned.IdealChannel\""
par RGG.node[94].port$o[0].channel typename "\"ned.IdealChannel\""
par RGG.node[8].port$o[24].channel typename "\"ned.IdealChannel\""
par RGG.node[97].port$o[2].channel typename "\"ned.IdealChannel\""
par RGG.node[8].port$o[25].channel typename "\"ned.IdealChannel\""
par RGG.node[98].port$o[1].channel typename "\"ned.IdealChannel\""
par RGG.node[9].port$o[2].channel typename "\"ned.IdealChannel\""
par RGG.node[10].port$o[1].channel typename "\"ned.IdealChannel\""
par RGG.node[9].port$o[3].channel typename "\"ned.IdealChannel\""
par RGG.node[14].port$o[1].channel typename "\"ned.IdealChannel\""
par RGG.node[9].port$o[4].channel typename "\"ned.IdealChannel\""
par RGG.node[20].port$o[0].channel typename "\"ned.IdealChannel\""
par RGG.node[9].port$o[5].channel typename "\"ned.IdealChannel\""
par RGG.node[25].port$o[0].channel typename "\"ned.IdealChannel\""
par RGG.node[9].port$o[6].channel typename "\"ned.IdealChannel\""
par RGG.node[33].port$o[1].channel typename "\"ned.IdealChannel\""
par RGG.node[9].port$o[7].channel typename "\"ned.IdealChannel\""
par RGG.node[38].port$o[2].channel typename "\"ned.IdealChannel\""
par RGG.node[9].port$o[8].channel typename "\"ned.IdealChannel\""
par RGG.node[42].port$o[0].channel typename "\"ned.IdealChannel\""
par RGG.node[9].port$o[9].channel typename "\"ned.IdealChannel\""
par RGG.node[45].port$o[1].channel typename "\"ned.IdealChannel\""
par RGG.node[9].port$o[10].channel typename "\"ned.IdealChannel\""
par RGG.node[51].port$o[3].channel typename "\"ned.IdealChannel\""
par RGG.node[9].port$o[11].channel typename "\"ned.IdealChannel\""
par RGG.node[52].port$o[1].channel typename "\"ned.IdealChannel\""
par RGG.node[9].port$o[12].channel typename "\"ned.IdealChannel\""
par RGG.node[55].port$o[3].channel typename "\"ned.IdealChannel\""
par RGG.node[9].port$o[13].channel typename "\"ned.IdealChannel\""
par RGG.node[63].port$o[1].channel typename "\"ned.IdealChannel\""
par RGG.node[9].port$o[14].channel typename "\"ned.IdealChannel\""
par RGG.node[67].port$o[2].channel typename "\"ned.IdealChannel\""
par RGG.node[9].port$o[15].channel typename "\"ned.IdealChannel\""
par RGG.node[73].port$o[1].channel typename "\"ned.IdealChannel\""
par RGG.node[9].port$o[16].channel typename "\"ned.IdealChannel\""
par RGG.node[74].port$o[2].channel typename "\"ned.IdealChannel\""
par RGG.node[9].port$o[17].channel typename "\"ned.IdealChannel\""
par RGG.node[77].port$o[1].channel typename "\"ned.IdealChannel\""
par RGG.node[9].port$o[18].channel typename "\"ned.IdealChannel\""
par RGG.node[80].port$o[2].channel typename "\"ned.IdealChannel\""
par RGG.node[9].port$o[19].channel typename "\"ned.IdealChannel\""
par RGG.node[83].port$o[2].channel typename "\"ned.IdealChannel\""
par RGG.node[9].port$o[20].channel typename "\"ned.IdealChannel\""
par RGG.node[86].port$o[1].channel typename "\"ned.IdealChannel\""
par RGG.node[9].port$o[21].channel typename "\"ned.IdealChannel\""
par RGG.node[92].port$o[0].channel typename "\"ned.IdealChannel\""
par RGG.node[9].port$o[22].channel typename "\"ned.IdealChannel\""
par RGG.node[95].port$o[0].channel typename "\"ned.IdealChannel\""
par RGG.node[9].port$o[23].channel typename "\"ned.IdealChannel\""
par RGG.node[96].port$o[1].channel typename "\"ned.IdealChannel\""
par RGG.node[9].port$o[24].channel typename "\"ned.IdealChannel\""
par RGG.node[97].port$o[3].channel typename "\"ned.IdealChannel\""
par RGG.node[10].port$o[2].channel typename "\"ned.IdealChannel\""
par RGG.node[11].port$o[1].channel typename "\"ned.IdealChannel\""
par RGG.node[10].port$o[3].channel typename "\"ned.IdealChannel\""
par RGG.node[14].port$o[2].channel typename "\"ned.IdealChannel\""
par RGG.node[10].port$o[4].channel typename "\"ned.IdealChannel\""
par RGG.node[15].port$o[1].channel typename "\"ned.IdealChannel\""
par RGG.node[10].port$o[5].channel typename "\"ned.IdealChannel\""
par RGG.node[22].port$o[2].channel typename "\"ned.IdealChannel\""
par RGG.node[10].port$o[6].channel typename "\"ned.IdealChannel\""
par RGG.node[25].port$o[1].channel typename "\"ned.IdealChannel\""
par RGG.node[10].port$o[7].channel typename "\"ned.IdealChannel\""
par RGG.node[28].port$o[2].channel typename "\"ned.IdealChannel\""
par RGG.node[10].port$o[8].channel typename "\"ned.IdealChannel\""
par RGG.node[31].port$o[3].channel typename "\"ned.IdealChannel\""
par RGG.node[10].port$o[9].channel typename "\"ned.IdealChannel\""
par RGG.node[33].port$o[2].channel typename "\"ned.IdealChannel\""
par RGG.node[10].port$o[10].channel typename "\"ned.IdealChannel\""
par RGG.node[38].port$o[3].channel typename "\"ned.IdealChannel\""
par RGG.node[10].port$o[11].channel typename "\"ned.IdealChannel\""
par RGG.node[42].port$o[1].channel typename "\"ned.IdealChannel\""
par RGG.node[10].port$o[12].channel typename "\"ned.IdealChannel\""
par RGG.node[45].port$o[2].channel typename "\"ned.IdealChannel\""
par RGG.node[10].port$o[13].channel typename "\"ned.IdealChannel\""
par RGG.node[47].port$o[2].channel typename "\"ned.IdealChannel\""
par RGG.node[10].port$o[14].channel typename "\"ned.IdealChannel\""
par RGG.node[49].port$o[2].channel typename "\"ned.IdealChannel\""
par RGG.node[10].port$o[15].channel typename "\"ned.IdealChannel\""
par RGG.node[52].port$o[2].channel typename "\"ned.IdealChannel\""
par RGG.node[10].port$o[16].channel typename "\"ned.IdealChannel\""
par RGG.node[56].port$o[1].channel typename "\"ned.IdealChannel\""
par RGG.node[10].port$o[17].channel typename "\"ned.IdealChannel\""
par RGG.node[73].port$o[2].channel typename "\"ned.IdealChannel\""
par RGG.node[10].port$o[18].channel typename "\"ned.IdealChannel\""
par RGG.node[74].port$o[3].channel typename "\"ned.IdealChannel\""
par RGG.node[10].port$o[19].channel typename "\"ned.IdealChannel\""
par RGG.node[77].port$o[2].channel typename "\"ned.IdealChannel\""
par RGG.node[10].port$o[20].channel typename "\"ned.IdealChannel\""
par RGG.node[80].port$o[3].channel typename "\"ned.IdealChannel\""
par RGG.node[10].port$o[21].channel typename "\"ned.IdealChannel\""
par RGG.node[83].port$o[3].channel typename "\"ned.IdealChannel\""
par RGG.node[10].port$o[22].channel typename "\"ned.IdealChannel\""
par RGG.node[94].port$o[1].channel typename "\"ned.IdealChannel\""
par RGG.node[10].port$o[23].channel typename "\"ned.IdealChannel\""
par RGG.node[98].port$o[2].channel typename "\"ned.IdealChannel\""
par RGG.node[10].port$o[24].channel typename "\"ned.IdealChannel\""
par RGG.node[99].port$o[1].channel typename "\"ned.IdealChannel\""
par RGG.node[11].port$o[2].channel typename "\"ned.IdealChannel\""
par RGG.node[14].port$o[3].channel typename "\"ned.IdealChannel\""
par RGG.node[11].port$o[3].channel typename "\"ned.IdealChannel\""
par RGG.node[15].port$o[2].channel typename "\"ned.IdealChannel\""
par RGG.node[11].port$o[4].channel typename "\"ned.IdealChannel\""
par RGG.node[22].port$o[3].channel typename "\"ned.IdealChannel\""
par RGG.node[11].port$o[5].channel typename "\"ned.IdealChannel\""
par RGG.node[26].port$o[3].channel typename "\"ned.IdealChannel\""
par RGG.node[11].port$o[6].channel typename "\"ned.IdealChannel\""
par RGG.node[28].port$o[3].channel typename "\"ned.IdealChannel\""
par RGG.node[11].port$o[7].channel typename "\"ned.IdealChannel\""
par RGG.node[30].port$o[3].channel typename "\"ned.IdealChannel\""
par RGG.node[11].port$o[8].channel typename "\"ned.IdealChannel\""
par RGG.node[31].port$o[4].channel typename "\"ned.IdealChannel\""
par RGG.node[11].port$o[9].channel typename "\"ned.IdealChannel\""
par RGG.node[33].port$o[3].channel typename "\"ned.IdealChannel\""
par RGG.node[11].port$o[10].channel typename "\"ned.IdealChannel\""
par RGG.node[35].port$o[2].channel typename "\"ned.IdealChannel\""
par RGG.node[11].port$o[11].channel typename "\"ned.IdealChannel\""
par RGG.node[43].port$o[3].channel typename "\"ned.IdealChannel\""
par RGG.node[11].port$o[12].channel typename "\"ned.IdealChannel\""
par RGG.node[45].port$o[3].channel typename "\"ned.IdealChannel\""
par RGG.node[11].port$o[13].channel typename "\"ned.IdealChannel\""
par RGG.node[47].port$o[3].channel typename "\"ned.IdealChannel\""
par RGG.node[11].port$o[14].channel typename "\"ned.IdealChannel\""
par RGG.node[49].port$o[3].channel typename "\"ned.IdealChannel\""
par RGG.node[11].port$o[15].channel typename "\"ned.IdealChannel\""
par RGG.node[52].port$o[3].channel typename "\"ned.IdealChannel\""
par RGG.node[11].port$o[16].channel typename "\"ned.IdealChannel\""
par RGG.node[56].port$o[2].channel typename "\"ned.IdealChannel\""
par RGG.node[11].port$o[17].channel typename "\"ned.IdealChannel\""
par RGG.node[68].port$o[2].channel typename "\"ned.IdealChannel\""
par RGG.node[11].port$o[18].channel typename "\"ned.IdealChannel\""
par RGG.node[77].port$o[3].channel typename "\"ned.IdealChannel\""
par RGG.node[11].port$o[19].channel typename "\"ned.IdealChannel\""
par RGG.node[99].port$o[2].channel typename "\"ned.IdealChannel\""
par RGG.node[12].port$o[3].channel typename "\"ned.IdealChannel\""
par RGG.node[46].port$o[4].channel typename "\"ned.IdealChannel\""
par RGG.node[12].port$o[4].channel typename "\"ned.IdealChannel\""
par RGG.node[51].port$o[4].channel typename "\"ned.IdealChannel\""
par RGG.node[12].port$o[5].channel typename "\"ned.IdealChannel\""
par RGG.node[53].port$o[2].channel typename "\"ned.IdealChannel\""
par RGG.node[12].port$o[6].channel typename "\"ned.IdealChannel\""
par RGG.node[62].port$o[2].channel typename "\"ned.IdealChannel\""
par RGG.node[12].port$o[7].channel typename "\"ned.IdealChannel\""
par RGG.node[63].port$o[2].channel typename "\"ned.IdealChannel\""
par RGG.node[12].port$o[8].channel typename "\"ned.IdealChannel\""
par RGG.node[67].port$o[3].channel typename "\"ned.IdealChannel\""
par RGG.node[12].port$o[9].channel typename "\"ned.IdealChannel\""
par RGG.node[71].port$o[3].channel typename "\"ned.IdealChannel\""
par RGG.node[12].port$o[10].channel typename "\"ned.IdealChannel\""
par RGG.node[84].port$o[1].channel typename "\"ned.IdealChannel\""
par RGG.node[12].port$o[11].channel typename "\"ned.IdealChannel\""
par RGG.node[85].port$o[3].channel typename "\"ned.IdealChannel\""
par RGG.node[12].port$o[12].channel typename "\"ned.IdealChannel\""
par RGG.node[86].port$o[2].channel typename "\"ned.IdealChannel\""
par RGG.node[12].port$o[13].channel typename "\"ned.IdealChannel\""
par RGG.node[88].port$o[1].channel typename "\"ned.IdealChannel\""
par RGG.node[12].port$o[14].channel typename "\"ned.IdealChannel\""
par RGG.node[90].port$o[3].channel typename "\"ned.IdealChannel\""
par RGG.node[12].port$o[15].channel typename "\"ned.IdealChannel\""
par RGG.node[91].port$o[3].channel typename "\"ned.IdealChannel\""
par RGG.node[12].port$o[16].channel typename "\"ned.IdealChannel\""
par RGG.node[93].port$o[2].channel typename "\"ned.IdealChannel\""
par RGG.node[12].port$o[17].channel typename "\"ned.IdealChannel\""
par RGG.node[96].port$o[2].channel typename "\"ned.IdealChannel\""
par RGG.node[13].port$o[3].channel typename "\"ned.IdealChannel\""
par RGG.node[21].port$o[3].channel typename "\"ned.IdealChannel\""
par RGG.node[13].port$o[4].channel typename "\"ned.IdealChannel\""
par RGG.node[24].port$o[0].channel typename "\"ned.IdealChannel\""
par RGG.node[13].port$o[5].channel typename "\"ned.IdealChannel\""
par RGG.node[27].port$o[3].channel typename "\"ned.IdealChannel\""
par RGG.node[13].port$o[6].channel typename "\"ned.IdealChannel\""
par RGG.node[32].port$o[1].channel typename "\"ned.IdealChannel\""
par RGG.node[13].port$o[7].channel typename "\"ned.IdealChannel\""
par RGG.node[38].port$o[4].channel typename "\"ned.IdealChannel\""
par RGG.node[13].port$o[8].channel typename "\"ned.IdealChannel\""
par RGG.node[40].port$o[1].channel typename "\"ned.IdealChannel\""
par RGG.node[13].port$o[9].channel typename "\"ned.IdealChannel\""
par RGG.node[44].port$o[0].channel typename "\"ned.IdealChannel\""
par RGG.node[13].port$o[10].channel typename "\"ned.IdealChannel\""
par RGG.node[46].port$o[5].channel typename "\"ned.IdealChannel\""
par RGG.node[13].port$o[11].channel typename "\"ned.IdealChannel\""
par RGG.node[50].port$o[0].channel typename "\"ned.IdealChannel\""
par RGG.node[13].port$o[12].channel typename "\"ned.IdealChannel\""
par RGG.node[51].port$o[5].channel typename "\"ned.IdealChannel\""
par RGG.node[13].port$o[13].channel typename "\"ned.IdealChannel\""
par RGG.node[52].port$o[4].channel typename "\"ned.IdealChannel\""
par RGG.node[13].port$o[14].channel typename "\"ned.IdealChannel\""
par RGG.node[54].port$o[0].channel typename "\"ned.IdealChannel\""
par RGG.node[13].port$o[15].channel typename "\"ned.IdealChannel\""
par RGG.node[55].port$o[4].channel typename "\"ned.IdealChannel\""
par RGG.node[13].port$o[16].channel typename "\"ned.IdealChannel\""
par RGG.node[56].port$o[3].channel typename "\"ned.IdealChannel\""
par RGG.node[13].port$o[17].channel typename "\"ned.IdealChannel\""
par RGG.node[65].port$o[0].channel typename "\"ned.IdealChannel\""
par RGG.node[13].port$o[18].channel typename "\"ned.IdealChannel\""
par RGG.node[70].port$o[2].channel typename "\"ned.IdealChannel\""
par RGG.node[13].port$o[19].channel typename "\"ned.IdealChannel\""
par RGG.node[71].port$o[4].channel typename "\"ned.IdealChannel\""
par RGG.node[13].port$o[20].channel typename "\"ned.IdealChannel\""
par RGG.node[74].port$o[4].channel typename "\"ned.IdealChannel\""
par RGG.node[13].port$o[21].channel typename "\"ned.IdealChannel\""
par RGG.node[79].port$o[0].channel typename "\"ned.IdealChannel\""
par RGG.node[13].port$o[22].channel typename "\"ned.IdealChannel\""
par RGG.node[80].port$o[4].channel typename "\"ned.IdealChannel\""
par RGG.node[13].port$o[23].channel typename "\"ned.IdealChannel\""
par RGG.node[82].port$o[1].channel typename "\"ned.IdealChannel\""
par RGG.node[13].port$o[24].channel typename "\"ned.IdealChannel\""
par RGG.node[85].port$o[4].channel typename "\"ned.IdealChannel\""
par RGG.node[13].port$o[25].channel typename "\"ned.IdealChannel\""
par RGG.node[91].port$o[4].channel typename "\"ned.IdealChannel\""
par RGG.node[13].port$o[26].channel typename "\"ned.IdealChannel\""
par RGG.node[94].port$o[2].channel typename "\"ned.IdealChannel\""
par RGG.node[13].port$o[27].channel typename "\"ned.IdealChannel\""
par RGG.node[97].port$o[4].channel typename "\"ned.IdealChannel\""
par RGG.node[13].port$o[28].channel typename "\"ned.IdealChannel\""
par RGG.node[98].port$o[3].channel typename "\"ned.IdealChannel\""
par RGG.node[14].port$o[4].channel typename "\"ned.IdealChannel\""
par RGG.node[20].port$o[1].channel typename "\"ned.IdealChannel\""
par RGG.node[14].port$o[5].channel typename "\"ned.IdealChannel\""
par RGG.node[25].port$o[2].channel typename "\"ned.IdealChannel\""
par RGG.node[14].port$o[6].channel typename "\"ned.IdealChannel\""
par RGG.node[33].port$o[4].channel typename "\"ned.IdealChannel\""
par RGG.node[14].port$o[7].channel typename "\"ned.IdealChannel\""
par RGG.node[38].port$o[5].channel typename "\"ned.IdealChannel\""
par RGG.node[14].port$o[8].channel typename "\"ned.IdealChannel\""
par RGG.node[39].port$o[0].channel typename "\"ned.IdealChannel\""
par RGG.node[14].port$o[9].channel typename "\"ned.IdealChannel\""
par RGG.node[42].port$o[2].channel typename "\"ned.IdealChannel\""
par RGG.node[14].port$o[10].channel typename "\"ned.IdealChannel\""
par RGG.node[45].port$o[4].channel typename "\"ned.IdealChannel\""
par RGG.node[14].port$o[11].channel typename "\"ned.IdealChannel\""
par RGG.node[52].port$o[5].channel typename "\"ned.IdealChannel\""
par RGG.node[14].port$o[12].channel typename "\"ned.IdealChannel\""
par RGG.node[66].port$o[1].channel typename "\"ned.IdealChannel\""
par RGG.node[14].port$o[13].channel typename "\"ned.IdealChannel\""
par RGG.node[73].port$o[3].channel typename "\"ned.IdealChannel\""
par RGG.node[14].port$o[14].channel typename "\"ned.IdealChannel\""
par RGG.node[74].port$o[5].channel typename "\"ned.IdealChannel\""
par RGG.node[14].port$o[15].channel typename "\"ned.IdealChannel\""
par RGG.node[77].port$o[4].channel typename "\"ned.IdealChannel\""
par RGG.node[14].port$o[16].channel typename "\"ned.IdealChannel\""
par RGG.node[80].port$o[5].channel typename "\"ned.IdealChannel\""
par RGG.node[14].port$o[17].channel typename "\"ned.IdealChannel\""
par RGG.node[83].port$o[4].channel typename "\"ned.IdealChannel\""
par RGG.node[14].port$o[18].channel typename "\"ned.IdealChannel\""
par RGG.node[92].port$o[1].channel typename "\"ned.IdealChannel\""
par RGG.node[14].port$o[19].channel typename "\"ned.IdealChannel\""
par RGG.node[95].port$o[1].channel typename "\"ned.IdealChannel\""
par RGG.node[14].port$o[20].channel typename "\"ned.IdealChannel\""
par RGG.node[99].port$o[3].channel typename "\"ned.IdealChannel\""
par RGG.node[15].port$o[3].channel typename "\"ned.IdealChannel\""
par RGG.node[22].port$o[4].channel typename "\"ned.IdealChannel\""
par RGG.node[15].port$o[4].channel typename "\"ned.IdealChannel\""
par RGG.node[26].port$o[4].channel typename "\"ned.IdealChannel\""
par RGG.node[15].port$o[5].channel typename "\"ned.IdealChannel\""
par RGG.node[28].port$o[4].channel typename "\"ned.IdealChannel\""
par RGG.node[15].port$o[6].channel typename "\"ned.IdealChannel\""
par RGG.node[30].port$o[4].channel typename "\"ned.IdealChannel\""
par RGG.node[15].port$o[7].channel typename "\"ned.IdealChannel\""
par RGG.node[31].port$o[5].channel typename "\"ned.IdealChannel\""
par RGG.node[15].port$o[8].channel typename "\"ned.IdealChannel\""
par RGG.node[35].port$o[3].channel typename "\"ned.IdealChannel\""
par RGG.node[15].port$o[9].channel typename "\"ned.IdealChannel\""
par RGG.node[40].port$o[2].channel typename "\"ned.IdealChannel\""
par RGG.node[15].port$o[10].channel typename "\"ned.IdealChannel\""
par RGG.node[43].port$o[4].channel typename "\"ned.IdealChannel\""
par RGG.node[15].port$o[11].channel typename "\"ned.IdealChannel\""
par RGG.node[45].port$o[5].channel typename "\"ned.IdealChannel\""
par RGG.node[15].port$o[12].channel typename "\"ned.IdealChannel\""
par RGG.node[47].port$o[4].channel typename "\"ned.IdealChannel\""
par RGG.node[15].port$o[13].channel typename "\"ned.IdealChannel\""
par RGG.node[49].port$o[4].channel typename "\"ned.IdealChannel\""
par RGG.node[15].port$o[14].channel typename "\"ned.IdealChannel\""
par RGG.node[52].port$o[6].channel typename "\"ned.IdealChannel\""
par RGG.node[15].port$o[15].channel typename "\"ned.IdealChannel\""
par RGG.node[56].port$o[4].channel typename "\"ned.IdealChannel\""
par RGG.node[15].port$o[16].channel typename "\"ned.IdealChannel\""
par RGG.node[68].port$o[3].channel typename "\"ned.IdealChannel\""
par RGG.node[15].port$o[17].channel typename "\"ned.IdealChannel\""
par RGG.node[77].port$o[5].channel typename "\"ned.IdealChannel\""
par RGG.node[15].port$o[18].channel typename "\"ned.IdealChannel\""
par RGG.node[89].port$o[2].channel typename "\"ned.IdealChannel\""
par RGG.node[15].port$o[19].channel typename "\"ned.IdealChannel\""
par RGG.node[94].port$o[3].channel typename "\"ned.IdealChannel\""
par RGG.node[15].port$o[20].channel typename "\"ned.IdealChannel\""
par RGG.node[99].port$o[4].channel typename "\"ned.IdealChannel\""
par RGG.node[16].port$o[0].channel typename "\"ned.IdealChannel\""
par RGG.node[18].port$o[0].channel typename "\"ned.IdealChannel\""
par RGG.node[16].port$o[1].channel typename "\"ned.IdealChannel\""
par RGG.node[24].port$o[1].channel typename "\"ned.IdealChannel\""
par RGG.node[16].port$o[2].channel typename "\"ned.IdealChannel\""
par RGG.node[44].port$o[1].channel typename "\"ned.IdealChannel\""
par RGG.node[16].port$o[3].channel typename "\"ned.IdealChannel\""
par RGG.node[48].port$o[0].channel typename "\"ned.IdealChannel\""
par RGG.node[16].port$o[4].channel typename "\"ned.IdealChannel\""
par RGG.node[50].port$o[1].channel typename "\"ned.IdealChannel\""
par RGG.node[16].port$o[5].channel typename "\"ned.IdealChannel\""
par RGG.node[54].port$o[1].channel typename "\"ned.IdealChannel\""
par RGG.node[16].port$o[6].channel typename "\"ned.IdealChannel\""
par RGG.node[57].port$o[0].channel typename "\"ned.IdealChannel\""
par RGG.node[16].port$o[7].channel typename "\"ned.IdealChannel\""
par RGG.node[58].port$o[0].channel typename "\"ned.IdealChannel\""
par RGG.node[16].port$o[8].channel typename "\"ned.IdealChannel\""
par RGG.node[65].port$o[1].channel typename "\"ned.IdealChannel\""
par RGG.node[16].port$o[9].channel typename "\"ned.IdealChannel\""
par RGG.node[75].port$o[0].channel typename "\"ned.IdealChannel\""
par RGG.node[16].port$o[10].channel typename "\"ned.IdealChannel\""
par RGG.node[79].port$o[1].channel typename "\"ned.IdealChannel\""
par RGG.node[16].port$o[11].channel typename "\"ned.IdealChannel\""
par RGG.node[81].port$o[0].channel typename "\"ned.IdealChannel\""
par RGG.node[16].port$o[12].channel typename "\"ned.IdealChannel\""
par RGG.node[87].port$o[1].channel typename "\"ned.IdealChannel\""
par RGG.node[17].port$o[2].channel typename "\"ned.IdealChannel\""
par RGG.node[19].port$o[1].channel typename "\"ned.IdealChannel\""
par RGG.node[17].port$o[3].channel typename "\"ned.IdealChannel\""
par RGG.node[26].port$o[5].channel typename "\"ned.IdealChannel\""
par RGG.node[17].port$o[4].channel typename "\"ned.IdealChannel\""
par RGG.node[30].port$o[5].channel typename "\"ned.IdealChannel\""
par RGG.node[17].port$o[5].channel typename "\"ned.IdealChannel\""
par RGG.node[43].port$o[5].channel typename "\"ned.IdealChannel\""
par RGG.node[17].port$o[6].channel typename "\"ned.IdealChannel\""
par RGG.node[59].port$o[1].channel typename "\"ned.IdealChannel\""
par RGG.node[17].port$o[7].channel typename "\"ned.IdealChannel\""
par RGG.node[64].port$o[1].channel typename "\"ned.IdealChannel\""
par RGG.node[18].port$o[1].channel typename "\"ned.IdealChannel\""
par RGG.node[57].port$o[1].channel typename "\"ned.IdealChannel\""
par RGG.node[18].port$o[2].channel typename "\"ned.IdealChannel\""
par RGG.node[75].port$o[1].channel typename "\"ned.IdealChannel\""
par RGG.node[18].port$o[3].channel typename "\"ned.IdealChannel\""
par RGG.node[81].port$o[1].channel typename "\"ned.IdealChannel\""
par RGG.node[18].port$o[4].channel typename "\"ned.IdealChannel\""
par RGG.node[87].port$o[2].channel typename "\"ned.IdealChannel\""
par RGG.node[19].port$o[2].channel typename "\"ned.IdealChannel\""
par RGG.node[41].port$o[1].channel typename "\"ned.IdealChannel\""
par RGG.node[19].port$o[3].channel typename "\"ned.IdealChannel\""
par RGG.node[59].port$o[2].channel typename "\"ned.IdealChannel\""
par RGG.node[19].port$o[4].channel typename "\"ned.IdealChannel\""
par RGG.node[64].port$o[2].channel typename "\"ned.IdealChannel\""
par RGG.node[20].port$o[2].channel typename "\"ned.IdealChannel\""
par RGG.node[25].port$o[3].channel typename "\"ned.IdealChannel\""
par RGG.node[20].port$o[3].channel typename "\"ned.IdealChannel\""
par RGG.node[37].port$o[1].channel typename "\"ned.IdealChannel\""
par RGG.node[20].port$o[4].channel typename "\"ned.IdealChannel\""
par RGG.node[42].port$o[3].channel typename "\"ned.IdealChannel\""
par RGG.node[20].port$o[5].channel typename "\"ned.IdealChannel\""
par RGG.node[61].port$o[0].channel typename "\"ned.IdealChannel\""
par RGG.node[20].port$o[6].channel typename "\"ned.IdealChannel\""
par RGG.node[63].port$o[3].channel typename "\"ned.IdealChannel\""
par RGG.node[20].port$o[7].channel typename "\"ned.IdealChannel\""
par RGG.node[66].port$o[2].channel typename "\"ned.IdealChannel\""
par RGG.node[20].port$o[8].channel typename "\"ned.IdealChannel\""
par RGG.node[67].port$o[4].channel typename "\"ned.IdealChannel\""
par RGG.node[20].port$o[9].channel typename "\"ned.IdealChannel\""
par RGG.node[73].port$o[4].channel typename "\"ned.IdealChannel\""
par RGG.node[20].port$o[10].channel typename "\"ned.IdealChannel\""
par RGG.node[76].port$o[1].channel typename "\"ned.IdealChannel\""
par RGG.node[20].port$o[11].channel typename "\"ned.IdealChannel\""
par RGG.node[83].port$o[5].channel typename "\"ned.IdealChannel\""
par RGG.node[20].port$o[12].channel typename "\"ned.IdealChannel\""
par RGG.node[92].port$o[2].channel typename "\"ned.IdealChannel\""
par RGG.node[20].port$o[13].channel typename "\"ned.IdealChannel\""
par RGG.node[95].port$o[2].channel typename "\"ned.IdealChannel\""
par RGG.node[21].port$o[4].channel typename "\"ned.IdealChannel\""
par RGG.node[24].port$o[2].channel typename "\"ned.IdealChannel\""
par RGG.node[21].port$o[5].channel typename "\"ned.IdealChannel\""
par RGG.node[27].port$o[4].channel typename "\"ned.IdealChannel\""
par RGG.node[21].port$o[6].channel typename "\"ned.IdealChannel\""
par RGG.node[32].port$o[2].channel typename "\"ned.IdealChannel\""
par RGG.node[21].port$o[7].channel typename "\"ned.IdealChannel\""
par RGG.node[40].port$o[3].channel typename "\"ned.IdealChannel\""
par RGG.node[21].port$o[8].channel typename "\"ned.IdealChannel\""
par RGG.node[44].port$o[2].channel typename "\"ned.IdealChannel\""
par RGG.node[21].port$o[9].channel typename "\"ned.IdealChannel\""
par RGG.node[46].port$o[6].channel typename "\"ned.IdealChannel\""
par RGG.node[21].port$o[10].channel typename "\"ned.IdealChannel\""
par RGG.node[48].port$o[1].channel typename "\"ned.IdealChannel\""
par RGG.node[21].port$o[11].channel typename "\"ned.IdealChannel\""
par RGG.node[50].port$o[2].channel typename "\"ned.IdealChannel\""
par RGG.node[21].port$o[12].channel typename "\"ned.IdealChannel\""
par RGG.node[51].port$o[6].channel typename "\"ned.IdealChannel\""
par RGG.node[21].port$o[13].channel typename "\"ned.IdealChannel\""
par RGG.node[52].port$o[7].channel typename "\"ned.IdealChannel\""
par RGG.node[21].port$o[14].channel typename "\"ned.IdealChannel\""
par RGG.node[54].port$o[2].channel typename "\"ned.IdealChannel\""
par RGG.node[21].port$o[15].channel typename "\"ned.IdealChannel\""
par RGG.node[55].port$o[5].channel typename "\"ned.IdealChannel\""
par RGG.node[21].port$o[16].channel typename "\"ned.IdealChannel\""
par RGG.node[58].port$o[1].channel typename "\"ned.IdealChannel\""
par RGG.node[21].port$o[17].channel typename "\"ned.IdealChannel\""
par RGG.node[65].port$o[2].channel typename "\"ned.IdealChannel\""
par RGG.node[21].port$o[18].channel typename "\"ned.IdealChannel\""
par RGG.node[70].port$o[3].channel typename "\"ned.IdealChannel\""
par RGG.node[21].port$o[19].channel typename "\"ned.IdealChannel\""
par RGG.node[71].port$o[5].channel typename "\"ned.IdealChannel\""
par RGG.node[21].port$o[20].channel typename "\"ned.IdealChannel\""
par RGG.node[74].port$o[6].channel typename "\"ned.IdealChannel\""
par RGG.node[21].port$o[21].channel typename "\"ned.IdealChannel\""
par RGG.node[79].port$o[2].channel typename "\"ned.IdealChannel\""
par RGG.node[21].port$o[22].channel typename "\"ned.IdealChannel\""
par RGG.node[80].port$o[6].channel typename "\"ned.IdealChannel\""
par RGG.node[21].port$o[23].channel typename "\"ned.IdealChannel\""
par RGG.node[82].port$o[2].channel typename "\"ned.IdealChannel\""
par RGG.node[21].port$o[24].channel typename "\"ned.IdealChannel\""
par RGG.node[85].port$o[5].channel typename "\"ned.IdealChannel\""
par RGG.node[21].port$o[25].channel typename "\"ned.IdealChannel\""
par RGG.node[91].port$o[5].channel typename "\"ned.IdealChannel\""
par RGG.node[21].port$o[26].channel typename "\"ned.IdealChannel\""
par RGG.node[94].port$o[4].channel typename "\"ned.IdealChannel\""
par RGG.node[21].port$o[27].channel typename "\"ned.IdealChannel\""
par RGG.node[97].port$o[5].channel typename "\"ned.IdealChannel\""
par RGG.node[21].port$o[28].channel typename "\"ned.IdealChannel\""
par RGG.node[98].port$o[4].channel typename "\"ned.IdealChannel\""
par RGG.node[22].port$o[5].channel typename "\"ned.IdealChannel\""
par RGG.node[26].port$o[6].channel typename "\"ned.IdealChannel\""
par RGG.node[22].port$o[6].channel typename "\"ned.IdealChannel\""
par RGG.node[28].port$o[5].channel typename "\"ned.IdealChannel\""
par RGG.node[22].port$o[7].channel typename "\"ned.IdealChannel\""
par RGG.node[30].port$o[6].channel typename "\"ned.IdealChannel\""
par RGG.node[22].port$o[8].channel typename "\"ned.IdealChannel\""
par RGG.node[31].port$o[6].channel typename "\"ned.IdealChannel\""
par RGG.node[22].port$o[9].channel typename "\"ned.IdealChannel\""
par RGG.node[33].port$o[5].channel typename "\"ned.IdealChannel\""
par RGG.node[22].port$o[10].channel typename "\"ned.IdealChannel\""
par RGG.node[35].port$o[4].channel typename "\"ned.IdealChannel\""
par RGG.node[22].port$o[11].channel typename "\"ned.IdealChannel\""
par RGG.node[43].port$o[6].channel typename "\"ned.IdealChannel\""
par RGG.node[22].port$o[12].channel typename "\"ned.IdealChannel\""
par RGG.node[45].port$o[6].channel typename "\"ned.IdealChannel\""
par RGG.node[22].port$o[13].channel typename "\"ned.IdealChannel\""
par RGG.node[47].port$o[5].channel typename "\"ned.IdealChannel\""
par RGG.node[22].port$o[14].channel typename "\"ned.IdealChannel\""
par RGG.node[49].port$o[5].channel typename "\"ned.IdealChannel\""
par RGG.node[22].port$o[15].channel typename "\"ned.IdealChannel\""
par RGG.node[68].port$o[4].channel typename "\"ned.IdealChannel\""
par RGG.node[22].port$o[16].channel typename "\"ned.IdealChannel\""
par RGG.node[77].port$o[6].channel typename "\"ned.IdealChannel\""
par RGG.node[22].port$o[17].channel typename "\"ned.IdealChannel\""
par RGG.node[99].port$o[5].channel typename "\"ned.IdealChannel\""
par RGG.node[23].port$o[2].channel typename "\"ned.IdealChannel\""
par RGG.node[26].port$o[7].channel typename "\"ned.IdealChannel\""
par RGG.node[23].port$o[3].channel typename "\"ned.IdealChannel\""
par RGG.node[30].port$o[7].channel typename "\"ned.IdealChannel\""
par RGG.node[23].port$o[4].channel typename "\"ned.IdealChannel\""
par RGG.node[35].port$o[5].channel typename "\"ned.IdealChannel\""
par RGG.node[23].port$o[5].channel typename "\"ned.IdealChannel\""
par RGG.node[43].port$o[7].channel typename "\"ned.IdealChannel\""
par RGG.node[23].port$o[6].channel typename "\"ned.IdealChannel\""
par RGG.node[64].port$o[3].channel typename "\"ned.IdealChannel\""
par RGG.node[23].port$o[7].channel typename "\"ned.IdealChannel\""
par RGG.node[68].port$o[5].channel typename "\"ned.IdealChannel\""
par RGG.node[23].port$o[8].channel typename "\"ned.IdealChannel\""
par RGG.node[89].port$o[3].channel typename "\"ned.IdealChannel\""
par RGG.node[24].port$o[3].channel typename "\"ned.IdealChannel\""
par RGG.node[27].port$o[5].channel typename "\"ned.IdealChannel\""
par RGG.node[24].port$o[4].channel typename "\"ned.IdealChannel\""
par RGG.node[32].port$o[3].channel typename "\"ned.IdealChannel\""
par RGG.node[24].port$o[5].channel typename "\"ned.IdealChannel\""
par RGG.node[40].port$o[4].channel typename "\"ned.IdealChannel\""
par RGG.node[24].port$o[6].channel typename "\"ned.IdealChannel\""
par RGG.node[44].port$o[3].channel typename "\"ned.IdealChannel\""
par RGG.node[24].port$o[7].channel typename "\"ned.IdealChannel\""
par RGG.node[48].port$o[2].channel typename "\"ned.IdealChannel\""
par RGG.node[24].port$o[8].channel typename "\"ned.IdealChannel\""
par RGG.node[50].port$o[3].channel typename "\"ned.IdealChannel\""
par RGG.node[24].port$o[9].channel typename "\"ned.IdealChannel\""
par RGG.node[54].port$o[3].channel typename "\"ned.IdealChannel\""
par RGG.node[24].port$o[10].channel typename "\"ned.IdealChannel\""
par RGG.node[58].port$o[2].channel typename "\"ned.IdealChannel\""
par RGG.node[24].port$o[11].channel typename "\"ned.IdealChannel\""
par RGG.node[65].port$o[3].channel typename "\"ned.IdealChannel\""
par RGG.node[24].port$o[12].channel typename "\"ned.IdealChannel\""
par RGG.node[70].port$o[4].channel typename "\"ned.IdealChannel\""
par RGG.node[24].port$o[13].channel typename "\"ned.IdealChannel\""
par RGG.node[75].port$o[2].channel typename "\"ned.IdealChannel\""
par RGG.node[24].port$o[14].channel typename "\"ned.IdealChannel\""
par RGG.node[79].port$o[3].channel typename "\"ned.IdealChannel\""
par RGG.node[24].port$o[15].channel typename "\"ned.IdealChannel\""
par RGG.node[82].port$o[3].channel typename "\"ned.IdealChannel\""
par RGG.node[24].port$o[16].channel typename "\"ned.IdealChannel\""
par RGG.node[91].port$o[6].channel typename "\"ned.IdealChannel\""
par RGG.node[24].port$o[17].channel typename "\"ned.IdealChannel\""
par RGG.node[94].port$o[5].channel typename "\"ned.IdealChannel\""
par RGG.node[24].port$o[18].channel typename "\"ned.IdealChannel\""
par RGG.node[97].port$o[6].channel typename "\"ned.IdealChannel\""
par RGG.node[24].port$o[19].channel typename "\"ned.IdealChannel\""
par RGG.node[98].port$o[5].channel typename "\"ned.IdealChannel\""
par RGG.node[25].port$o[4].channel typename "\"ned.IdealChannel\""
par RGG.node[33].port$o[6].channel typename "\"ned.IdealChannel\""
par RGG.node[25].port$o[5].channel typename "\"ned.IdealChannel\""
par RGG.node[34].port$o[1].channel typename "\"ned.IdealChannel\""
par RGG.node[25].port$o[6].channel typename "\"ned.IdealChannel\""
par RGG.node[37].port$o[2].channel typename "\"ned.IdealChannel\""
par RGG.node[25].port$o[7].channel typename "\"ned.IdealChannel\""
par RGG.node[38].port$o[6].channel typename "\"ned.IdealChannel\""
par RGG.node[25].port$o[8].channel typename "\"ned.IdealChannel\""
par RGG.node[39].port$o[1].channel typename "\"ned.IdealChannel\""
par RGG.node[25].port$o[9].channel typename "\"ned.IdealChannel\""
par RGG.node[42].port$o[4].channel typename "\"ned.IdealChannel\""
par RGG.node[25].port$o[10].channel typename "\"ned.IdealChannel\""
par RGG.node[45].port$o[7].channel typename "\"ned.IdealChannel\""
par RGG.node[25].port$o[11].channel typename "\"ned.IdealChannel\""
par RGG.node[66].port$o[3].channel typename "\"ned.IdealChannel\""
par RGG.node[25].port$o[12].channel typename "\"ned.IdealChannel\""
par RGG.node[69].port$o[1].channel typename "\"ned.IdealChannel\""
par RGG.node[25].port$o[13].channel typename "\"ned.IdealChannel\""
par RGG.node[72].port$o[1].channel typename "\"ned.IdealChannel\""
par RGG.node[25].port$o[14].channel typename "\"ned.IdealChannel\""
par RGG.node[73].port$o[5].channel typename "\"ned.IdealChannel\""
par RGG.node[25].port$o[15].channel typename "\"ned.IdealChannel\""
par RGG.node[76].port$o[2].channel typename "\"ned.IdealChannel\""
par RGG.node[25].port$o[16].channel typename "\"ned.IdealChannel\""
par RGG.node[83].port$o[6].channel typename "\"ned.IdealChannel\""
par RGG.node[25].port$o[17].channel typename "\"ned.IdealChannel\""
par RGG.node[92].port$o[3].channel typename "\"ned.IdealChannel\""
par RGG.node[25].port$o[18].channel typename "\"ned.IdealChannel\""
par RGG.node[95].port$o[3].channel typename "\"ned.IdealChannel\""
par RGG.node[26].port$o[8].channel typename "\"ned.IdealChannel\""
par RGG.node[28].port$o[6].channel typename "\"ned.IdealChannel\""
par RGG.node[26].port$o[9].channel typename "\"ned.IdealChannel\""
par RGG.node[30].port$o[8].channel typename "\"ned.IdealChannel\""
par RGG.node[26].port$o[10].channel typename "\"ned.IdealChannel\""
par RGG.node[31].port$o[7].channel typename "\"ned.IdealChannel\""
par RGG.node[26].port$o[11].channel typename "\"ned.IdealChannel\""
par RGG.node[35].port$o[6].channel typename "\"ned.IdealChannel\""
par RGG.node[26].port$o[12].channel typename "\"ned.IdealChannel\""
par RGG.node[43].port$o[8].channel typename "\"ned.IdealChannel\""
par RGG.node[26].port$o[13].channel typename "\"ned.IdealChannel\""
par RGG.node[47].port$o[6].channel typename "\"ned.IdealChannel\""
par RGG.node[26].port$o[14].channel typename "\"ned.IdealChannel\""
par RGG.node[49].port$o[6].channel typename "\"ned.IdealChannel\""
par RGG.node[26].port$o[15].channel typename "\"ned.IdealChannel\""
par RGG.node[64].port$o[4].channel typename "\"ned.IdealChannel\""
par RGG.node[26].port$o[16].channel typename "\"ned.IdealChannel\""
par RGG.node[68].port$o[6].channel typename "\"ned.IdealChannel\""
par RGG.node[26].port$o[17].channel typename "\"ned.IdealChannel\""
par RGG.node[89].port$o[4].channel typename "\"ned.IdealChannel\""
par RGG.node[26].port$o[18].channel typename "\"ned.IdealChannel\""
par RGG.node[99].port$o[6].channel typename "\"ned.IdealChannel\""
par RGG.node[27].port$o[6].channel typename "\"ned.IdealChannel\""
par RGG.node[32].port$o[4].channel typename "\"ned.IdealChannel\""
par RGG.node[27].port$o[7].channel typename "\"ned.IdealChannel\""
par RGG.node[38].port$o[7].channel typename "\"ned.IdealChannel\""
par RGG.node[27].port$o[8].channel typename "\"ned.IdealChannel\""
par RGG.node[40].port$o[5].channel typename "\"ned.IdealChannel\""
par RGG.node[27].port$o[9].channel typename "\"ned.IdealChannel\""
par RGG.node[46].port$o[7].channel typename "\"ned.IdealChannel\""
par RGG.node[27].port$o[10].channel typename "\"ned.IdealChannel\""
par RGG.node[50].port$o[4].channel typename "\"ned.IdealChannel\""
par RGG.node[27].port$o[11].channel typename "\"ned.IdealChannel\""
par RGG.node[51].port$o[7].channel typename "\"ned.IdealChannel\""
par RGG.node[27].port$o[12].channel typename "\"ned.IdealChannel\""
par RGG.node[52].port$o[8].channel typename "\"ned.IdealChannel\""
par RGG.node[27].port$o[13].channel typename "\"ned.IdealChannel\""
par RGG.node[54].port$o[4].channel typename "\"ned.IdealChannel\""
par RGG.node[27].port$o[14].channel typename "\"ned.IdealChannel\""
par RGG.node[55].port$o[6].channel typename "\"ned.IdealChannel\""
par RGG.node[27].port$o[15].channel typename "\"ned.IdealChannel\""
par RGG.node[56].port$o[5].channel typename "\"ned.IdealChannel\""
par RGG.node[27].port$o[16].channel typename "\"ned.IdealChannel\""
par RGG.node[65].port$o[4].channel typename "\"ned.IdealChannel\""
par RGG.node[27].port$o[17].channel typename "\"ned.IdealChannel\""
par RGG.node[70].port$o[5].channel typename "\"ned.IdealChannel\""
par RGG.node[27].port$o[18].channel typename "\"ned.IdealChannel\""
par RGG.node[71].port$o[6].channel typename "\"ned.IdealChannel\""
par RGG.node[27].port$o[19].channel typename "\"ned.IdealChannel\""
par RGG.node[74].port$o[7].channel typename "\"ned.IdealChannel\""
par RGG.node[27].port$o[20].channel typename "\"ned.IdealChannel\""
par RGG.node[79].port$o[4].channel typename "\"ned.IdealChannel\""
par RGG.node[27].port$o[21].channel typename "\"ned.IdealChannel\""
par RGG.node[80].port$o[7].channel typename "\"ned.IdealChannel\""
par RGG.node[27].port$o[22].channel typename "\"ned.IdealChannel\""
par RGG.node[82].port$o[4].channel typename "\"ned.IdealChannel\""
par RGG.node[27].port$o[23].channel typename "\"ned.IdealChannel\""
par RGG.node[83].port$o[7].channel typename "\"ned.IdealChannel\""
par RGG.node[27].port$o[24].channel typename "\"ned.IdealChannel\""
par RGG.node[85].port$o[6].channel typename "\"ned.IdealChannel\""
par RGG.node[27].port$o[25].channel typename "\"ned.IdealChannel\""
par RGG.node[91].port$o[7].channel typename "\"ned.IdealChannel\""
par RGG.node[27].port$o[26].channel typename "\"ned.IdealChannel\""
par RGG.node[94].port$o[6].channel typename "\"ned.IdealChannel\""
par RGG.node[27].port$o[27].channel typename "\"ned.IdealChannel\""
par RGG.node[97].port$o[7].channel typename "\"ned.IdealChannel\""
par RGG.node[27].port$o[28].channel typename "\"ned.IdealChannel\""
par RGG.node[98].port$o[6].channel typename "\"ned.IdealChannel\""
par RGG.node[28].port$o[7].channel typename "\"ned.IdealChannel\""
par RGG.node[30].port$o[9].channel typename "\"ned.IdealChannel\""
par RGG.node[28].port$o[8].channel typename "\"ned.IdealChannel\""
par RGG.node[31].port$o[8].channel typename "\"ned.IdealChannel\""
par RGG.node[28].port$o[9].channel typename "\"ned.IdealChannel\""
par RGG.node[33].port$o[7].channel typename "\"ned.IdealChannel\""
par RGG.node[28].port$o[10].channel typename "\"ned.IdealChannel\""
par RGG.node[35].port$o[7].channel typename "\"ned.IdealChannel\""
par RGG.node[28].port$o[11].channel typename "\"ned.IdealChannel\""
par RGG.node[43].port$o[9].channel typename "\"ned.IdealChannel\""
par RGG.node[28].port$o[12].channel typename "\"ned.IdealChannel\""
par RGG.node[45].port$o[8].channel typename "\"ned.IdealChannel\""
par RGG.node[28].port$o[13].channel typename "\"ned.IdealChannel\""
par RGG.node[47].port$o[7].channel typename "\"ned.IdealChannel\""
par RGG.node[28].port$o[14].channel typename "\"ned.IdealChannel\""
par RGG.node[49].port$o[7].channel typename "\"ned.IdealChannel\""
par RGG.node[28].port$o[15].channel typename "\"ned.IdealChannel\""
par RGG.node[52].port$o[9].channel typename "\"ned.IdealChannel\""
par RGG.node[28].port$o[16].channel typename "\"ned.IdealChannel\""
par RGG.node[56].port$o[6].channel typename "\"ned.IdealChannel\""
par RGG.node[28].port$o[17].channel typename "\"ned.IdealChannel\""
par RGG.node[68].port$o[7].channel typename "\"ned.IdealChannel\""
par RGG.node[28].port$o[18].channel typename "\"ned.IdealChannel\""
par RGG.node[77].port$o[7].channel typename "\"ned.IdealChannel\""
par RGG.node[28].port$o[19].channel typename "\"ned.IdealChannel\""
par RGG.node[99].port$o[7].channel typename "\"ned.IdealChannel\""
par RGG.node[29].port$o[1].channel typename "\"ned.IdealChannel\""
par RGG.node[34].port$o[2].channel typename "\"ned.IdealChannel\""
par RGG.node[29].port$o[2].channel typename "\"ned.IdealChannel\""
par RGG.node[39].port$o[2].channel typename "\"ned.IdealChannel\""
par RGG.node[29].port$o[3].channel typename "\"ned.IdealChannel\""
par RGG.node[41].port$o[2].channel typename "\"ned.IdealChannel\""
par RGG.node[30].port$o[10].channel typename "\"ned.IdealChannel\""
par RGG.node[31].port$o[9].channel typename "\"ned.IdealChannel\""
par RGG.node[30].port$o[11].channel typename "\"ned.IdealChannel\""
par RGG.node[35].port$o[8].channel typename "\"ned.IdealChannel\""
par RGG.node[30].port$o[12].channel typename "\"ned.IdealChannel\""
par RGG.node[43].port$o[10].channel typename "\"ned.IdealChannel\""
par RGG.node[30].port$o[13].channel typename "\"ned.IdealChannel\""
par RGG.node[47].port$o[8].channel typename "\"ned.IdealChannel\""
par RGG.node[30].port$o[14].channel typename "\"ned.IdealChannel\""
par RGG.node[49].port$o[8].channel typename "\"ned.IdealChannel\""
par RGG.node[30].port$o[15].channel typename "\"ned.IdealChannel\""
par RGG.node[59].port$o[3].channel typename "\"ned.IdealChannel\""
par RGG.node[30].port$o[16].channel typename "\"ned.IdealChannel\""
par RGG.node[64].port$o[5].channel typename "\"ned.IdealChannel\""
par RGG.node[30].port$o[17].channel typename "\"ned.IdealChannel\""
par RGG.node[68].port$o[8].channel typename "\"ned.IdealChannel\""
par RGG.node[30].port$o[18].channel typename "\"ned.IdealChannel\""
par RGG.node[99].port$o[8].channel typename "\"ned.IdealChannel\""
par RGG.node[31].port$o[10].channel typename "\"ned.IdealChannel\""
par RGG.node[35].port$o[9].channel typename "\"ned.IdealChannel\""
par RGG.node[31].port$o[11].channel typename "\"ned.IdealChannel\""
par RGG.node[43].port$o[11].channel typename "\"ned.IdealChannel\""
par RGG.node[31].port$o[12].channel typename "\"ned.IdealChannel\""
par RGG.node[45].port$o[9].channel typename "\"ned.IdealChannel\""
par RGG.node[31].port$o[13].channel typename "\"ned.IdealChannel\""
par RGG.node[47].port$o[9].channel typename "\"ned.IdealChannel\""
par RGG.node[31].port$o[14].channel typename "\"ned.IdealChannel\""
par RGG.node[49].port$o[9].channel typename "\"ned.IdealChannel\""
par RGG.node[31].port$o[15].channel typename "\"ned.IdealChannel\""
par RGG.node[68].port$o[9].channel typename "\"ned.IdealChannel\""
par RGG.node[31].port$o[16].channel typename "\"ned.IdealChannel\""
par RGG.node[77].port$o[8].channel typename "\"ned.IdealChannel\""
par RGG.node[31].port$o[17].channel typename "\"ned.IdealChannel\""
par RGG.node[99].port$o[9].channel typename "\"ned.IdealChannel\""
par RGG.node[32].port$o[5].channel typename "\"ned.IdealChannel\""
par RGG.node[44].port$o[4].channel typename "\"ned.IdealChannel\""
par RGG.node[32].port$o[6].channel typename "\"ned.IdealChannel\""
par RGG.node[48].port$o[3].channel typename "\"ned.IdealChannel\""
par RGG.node[32].port$o[7].channel typename "\"ned.IdealChannel\""
par RGG.node[50].port$o[5].channel typename "\"ned.IdealChannel\""
par RGG.node[32].port$o[8].channel typename "\"ned.IdealChannel\""
par RGG.node[54].port$o[5].channel typename "\"ned.IdealChannel\""
par RGG.node[32].port$o[9].channel typename "\"ned.IdealChannel\""
par RGG.node[58].port$o[3].channel typename "\"ned.IdealChannel\""
par RGG.node[32].port$o[10].channel typename "\"ned.IdealChannel\""
par RGG.node[65].port$o[5].channel typename "\"ned.IdealChannel\""
par RGG.node[32].port$o[11].channel typename "\"ned.IdealChannel\""
par RGG.node[70].port$o[6].channel typename "\"ned.IdealChannel\""
par RGG.node[32].port$o[12].channel typename "\"ned.IdealChannel\""
par RGG.node[71].port$o[7].channel typename "\"ned.IdealChannel\""
par RGG.node[32].port$o[13].channel typename "\"ned.IdealChannel\""
par RGG.node[79].port$o[5].channel typename "\"ned.IdealChannel\""
par RGG.node[32].port$o[14].channel typename "\"ned.IdealChannel\""
par RGG.node[82].port$o[5].channel typename "\"ned.IdealChannel\""
par RGG.node[32].port$o[15].channel typename "\"ned.IdealChannel\""
par RGG.node[85].port$o[7].channel typename "\"ned.IdealChannel\""
par RGG.node[32].port$o[16].channel typename "\"ned.IdealChannel\""
par RGG.node[91].port$o[8].channel typename "\"ned.IdealChannel\""
par RGG.node[32].port$o[17].channel typename "\"ned.IdealChannel\""
par RGG.node[97].port$o[8].channel typename "\"ned.IdealChannel\""
par RGG.node[33].port$o[8].channel typename "\"ned.IdealChannel\""
par RGG.node[38].port$o[8].channel typename "\"ned.IdealChannel\""
par RGG.node[33].port$o[9].channel typename "\"ned.IdealChannel\""
par RGG.node[39].port$o[3].channel typename "\"ned.IdealChannel\""
par RGG.node[33].port$o[10].channel typename "\"ned.IdealChannel\""
par RGG.node[42].port$o[5].channel typename "\"ned.IdealChannel\""
par RGG.node[33].port$o[11].channel typename "\"ned.IdealChannel\""
par RGG.node[45].port$o[10].channel typename "\"ned.IdealChannel\""
par RGG.node[33].port$o[12].channel typename "\"ned.IdealChannel\""
par RGG.node[47].port$o[10].channel typename "\"ned.IdealChannel\""
par RGG.node[33].port$o[13].channel typename "\"ned.IdealChannel\""
par RGG.node[49].port$o[10].channel typename "\"ned.IdealChannel\""
par RGG.node[33].port$o[14].channel typename "\"ned.IdealChannel\""
par RGG.node[52].port$o[10].channel typename "\"ned.IdealChannel\""
par RGG.node[33].port$o[15].channel typename "\"ned.IdealChannel\""
par RGG.node[56].port$o[7].channel typename "\"ned.IdealChannel\""
par RGG.node[33].port$o[16].channel typename "\"ned.IdealChannel\""
par RGG.node[73].port$o[6].channel typename "\"ned.IdealChannel\""
par RGG.node[33].port$o[17].channel typename "\"ned.IdealChannel\""
par RGG.node[74].port$o[8].channel typename "\"ned.IdealChannel\""
par RGG.node[33].port$o[18].channel typename "\"ned.IdealChannel\""
par RGG.node[77].port$o[9].channel typename "\"ned.IdealChannel\""
par RGG.node[33].port$o[19].channel typename "\"ned.IdealChannel\""
par RGG.node[80].port$o[8].channel typename "\"ned.IdealChannel\""
par RGG.node[33].port$o[20].channel typename "\"ned.IdealChannel\""
par RGG.node[83].port$o[8].channel typename "\"ned.IdealChannel\""
par RGG.node[33].port$o[21].channel typename "\"ned.IdealChannel\""
par RGG.node[92].port$o[4].channel typename "\"ned.IdealChannel\""
par RGG.node[33].port$o[22].channel typename "\"ned.IdealChannel\""
par RGG.node[95].port$o[4].channel typename "\"ned.IdealChannel\""
par RGG.node[33].port$o[23].channel typename "\"ned.IdealChannel\""
par RGG.node[99].port$o[10].channel typename "\"ned.IdealChannel\""
par RGG.node[34].port$o[3].channel typename "\"ned.IdealChannel\""
par RGG.node[39].port$o[4].channel typename "\"ned.IdealChannel\""
par RGG.node[34].port$o[4].channel typename "\"ned.IdealChannel\""
par RGG.node[42].port$o[6].channel typename "\"ned.IdealChannel\""
par RGG.node[34].port$o[5].channel typename "\"ned.IdealChannel\""
par RGG.node[45].port$o[11].channel typename "\"ned.IdealChannel\""
par RGG.node[34].port$o[6].channel typename "\"ned.IdealChannel\""
par RGG.node[69].port$o[2].channel typename "\"ned.IdealChannel\""
par RGG.node[34].port$o[7].channel typename "\"ned.IdealChannel\""
par RGG.node[72].port$o[2].channel typename "\"ned.IdealChannel\""
par RGG.node[34].port$o[8].channel typename "\"ned.IdealChannel\""
par RGG.node[76].port$o[3].channel typename "\"ned.IdealChannel\""
par RGG.node[34].port$o[9].channel typename "\"ned.IdealChannel\""
par RGG.node[99].port$o[11].channel typename "\"ned.IdealChannel\""
par RGG.node[35].port$o[10].channel typename "\"ned.IdealChannel\""
par RGG.node[43].port$o[12].channel typename "\"ned.IdealChannel\""
par RGG.node[35].port$o[11].channel typename "\"ned.IdealChannel\""
par RGG.node[47].port$o[11].channel typename "\"ned.IdealChannel\""
par RGG.node[35].port$o[12].channel typename "\"ned.IdealChannel\""
par RGG.node[49].port$o[11].channel typename "\"ned.IdealChannel\""
par RGG.node[35].port$o[13].channel typename "\"ned.IdealChannel\""
par RGG.node[68].port$o[10].channel typename "\"ned.IdealChannel\""
par RGG.node[35].port$o[14].channel typename "\"ned.IdealChannel\""
par RGG.node[89].port$o[5].channel typename "\"ned.IdealChannel\""
par RGG.node[36].port$o[1].channel typename "\"ned.IdealChannel\""
par RGG.node[37].port$o[3].channel typename "\"ned.IdealChannel\""
par RGG.node[36].port$o[2].channel typename "\"ned.IdealChannel\""
par RGG.node[60].port$o[1].channel typename "\"ned.IdealChannel\""
par RGG.node[36].port$o[3].channel typename "\"ned.IdealChannel\""
par RGG.node[66].port$o[4].channel typename "\"ned.IdealChannel\""
par RGG.node[36].port$o[4].channel typename "\"ned.IdealChannel\""
par RGG.node[78].port$o[1].channel typename "\"ned.IdealChannel\""
par RGG.node[37].port$o[4].channel typename "\"ned.IdealChannel\""
par RGG.node[42].port$o[7].channel typename "\"ned.IdealChannel\""
par RGG.node[37].port$o[5].channel typename "\"ned.IdealChannel\""
par RGG.node[60].port$o[2].channel typename "\"ned.IdealChannel\""
par RGG.node[37].port$o[6].channel typename "\"ned.IdealChannel\""
par RGG.node[61].port$o[1].channel typename "\"ned.IdealChannel\""
par RGG.node[37].port$o[7].channel typename "\"ned.IdealChannel\""
par RGG.node[66].port$o[5].channel typename "\"ned.IdealChannel\""
par RGG.node[37].port$o[8].channel typename "\"ned.IdealChannel\""
par RGG.node[69].port$o[3].channel typename "\"ned.IdealChannel\""
par RGG.node[37].port$o[9].channel typename "\"ned.IdealChannel\""
par RGG.node[72].port$o[3].channel typename "\"ned.IdealChannel\""
par RGG.node[37].port$o[10].channel typename "\"ned.IdealChannel\""
par RGG.node[76].port$o[4].channel typename "\"ned.IdealChannel\""
par RGG.node[37].port$o[11].channel typename "\"ned.IdealChannel\""
par RGG.node[78].port$o[2].channel typename "\"ned.IdealChannel\""
par RGG.node[37].port$o[12].channel typename "\"ned.IdealChannel\""
par RGG.node[92].port$o[5].channel typename "\"ned.IdealChannel\""
par RGG.node[37].port$o[13].channel typename "\"ned.IdealChannel\""
par RGG.node[95].port$o[5].channel typename "\"ned.IdealChannel\""
par RGG.node[38].port$o[9].channel typename "\"ned.IdealChannel\""
par RGG.node[42].port$o[8].channel typename "\"ned.IdealChannel\""
par RGG.node[38].port$o[10].channel typename "\"ned.IdealChannel\""
par RGG.node[45].port$o[12].channel typename "\"ned.IdealChannel\""
par RGG.node[38].port$o[11].channel typename "\"ned.IdealChannel\""
par RGG.node[51].port$o[8].channel typename "\"ned.IdealChannel\""
par RGG.node[38].port$o[12].channel typename "\"ned.IdealChannel\""
par RGG.node[52].port$o[11].channel typename "\"ned.IdealChannel\""
par RGG.node[38].port$o[13].channel typename "\"ned.IdealChannel\""
par RGG.node[55].port$o[7].channel typename "\"ned.IdealChannel\""
par RGG.node[38].port$o[14].channel typename "\"ned.IdealChannel\""
par RGG.node[56].port$o[8].channel typename "\"ned.IdealChannel\""
par RGG.node[38].port$o[15].channel typename "\"ned.IdealChannel\""
par RGG.node[63].port$o[4].channel typename "\"ned.IdealChannel\""
par RGG.node[38].port$o[16].channel typename "\"ned.IdealChannel\""
par RGG.node[67].port$o[5].channel typename "\"ned.IdealChannel\""
par RGG.node[38].port$o[17].channel typename "\"ned.IdealChannel\""
par RGG.node[73].port$o[7].channel typename "\"ned.IdealChannel\""
par RGG.node[38].port$o[18].channel typename "\"ned.IdealChannel\""
par RGG.node[74].port$o[9].channel typename "\"ned.IdealChannel\""
par RGG.node[38].port$o[19].channel typename "\"ned.IdealChannel\""
par RGG.node[77].port$o[10].channel typename "\"ned.IdealChannel\""
par RGG.node[38].port$o[20].channel typename "\"ned.IdealChannel\""
par RGG.node[80].port$o[9].channel typename "\"ned.IdealChannel\""
par RGG.node[38].port$o[21].channel typename "\"ned.IdealChannel\""
par RGG.node[83].port$o[9].channel typename "\"ned.IdealChannel\""
par RGG.node[38].port$o[22].channel typename "\"ned.IdealChannel\""
par RGG.node[94].port$o[7].channel typename "\"ned.IdealChannel\""
par RGG.node[38].port$o[23].channel typename "\"ned.IdealChannel\""
par RGG.node[95].port$o[6].channel typename "\"ned.IdealChannel\""
par RGG.node[38].port$o[24].channel typename "\"ned.IdealChannel\""
par RGG.node[96].port$o[3].channel typename "\"ned.IdealChannel\""
par RGG.node[38].port$o[25].channel typename "\"ned.IdealChannel\""
par RGG.node[97].port$o[9].channel typename "\"ned.IdealChannel\""
par RGG.node[38].port$o[26].channel typename "\"ned.IdealChannel\""
par RGG.node[98].port$o[7].channel typename "\"ned.IdealChannel\""
par RGG.node[39].port$o[5].channel typename "\"ned.IdealChannel\""
par RGG.node[42].port$o[9].channel typename "\"ned.IdealChannel\""
par RGG.node[39].port$o[6].channel typename "\"ned.IdealChannel\""
par RGG.node[45].port$o[13].channel typename "\"ned.IdealChannel\""
par RGG.node[39].port$o[7].channel typename "\"ned.IdealChannel\""
par RGG.node[69].port$o[4].channel typename "\"ned.IdealChannel\""
par RGG.node[39].port$o[8].channel typename "\"ned.IdealChannel\""
par RGG.node[72].port$o[4].channel typename "\"ned.IdealChannel\""
par RGG.node[39].port$o[9].channel typename "\"ned.IdealChannel\""
par RGG.node[76].port$o[5].channel typename "\"ned.IdealChannel\""
par RGG.node[39].port$o[10].channel typename "\"ned.IdealChannel\""
par RGG.node[92].port$o[6].channel typename "\"ned.IdealChannel\""
par RGG.node[39].port$o[11].channel typename "\"ned.IdealChannel\""
par RGG.node[99].port$o[12].channel typename "\"ned.IdealChannel\""
par RGG.node[40].port$o[6].channel typename "\"ned.IdealChannel\""
par RGG.node[49].port$o[12].channel typename "\"ned.IdealChannel\""
par RGG.node[40].port$o[7].channel typename "\"ned.IdealChannel\""
par RGG.node[50].port$o[6].channel typename "\"ned.IdealChannel\""
par RGG.node[40].port$o[8].channel typename "\"ned.IdealChannel\""
par RGG.node[52].port$o[12].channel typename "\"ned.IdealChannel\""
par RGG.node[40].port$o[9].channel typename "\"ned.IdealChannel\""
par RGG.node[54].port$o[6].channel typename "\"ned.IdealChannel\""
par RGG.node[40].port$o[10].channel typename "\"ned.IdealChannel\""
par RGG.node[55].port$o[8].channel typename "\"ned.IdealChannel\""
par RGG.node[40].port$o[11].channel typename "\"ned.IdealChannel\""
par RGG.node[56].port$o[9].channel typename "\"ned.IdealChannel\""
par RGG.node[40].port$o[12].channel typename "\"ned.IdealChannel\""
par RGG.node[58].port$o[4].channel typename "\"ned.IdealChannel\""
par RGG.node[40].port$o[13].channel typename "\"ned.IdealChannel\""
par RGG.node[65].port$o[6].channel typename "\"ned.IdealChannel\""
par RGG.node[40].port$o[14].channel typename "\"ned.IdealChannel\""
par RGG.node[75].port$o[3].channel typename "\"ned.IdealChannel\""
par RGG.node[40].port$o[15].channel typename "\"ned.IdealChannel\""
par RGG.node[79].port$o[6].channel typename "\"ned.IdealChannel\""
par RGG.node[40].port$o[16].channel typename "\"ned.IdealChannel\""
par RGG.node[80].port$o[10].channel typename "\"ned.IdealChannel\""
par RGG.node[40].port$o[17].channel typename "\"ned.IdealChannel\""
par RGG.node[87].port$o[3].channel typename "\"ned.IdealChannel\""
par RGG.node[40].port$o[18].channel typename "\"ned.IdealChannel\""
par RGG.node[94].port$o[8].channel typename "\"ned.IdealChannel\""
par RGG.node[40].port$o[19].channel typename "\"ned.IdealChannel\""
par RGG.node[97].port$o[10].channel typename "\"ned.IdealChannel\""
par RGG.node[40].port$o[20].channel typename "\"ned.IdealChannel\""
par RGG.node[98].port$o[8].channel typename "\"ned.IdealChannel\""
par RGG.node[42].port$o[10].channel typename "\"ned.IdealChannel\""
par RGG.node[45].port$o[14].channel typename "\"ned.IdealChannel\""
par RGG.node[42].port$o[11].channel typename "\"ned.IdealChannel\""
par RGG.node[66].port$o[6].channel typename "\"ned.IdealChannel\""
par RGG.node[42].port$o[12].channel typename "\"ned.IdealChannel\""
par RGG.node[69].port$o[5].channel typename "\"ned.IdealChannel\""
par RGG.node[42].port$o[13].channel typename "\"ned.IdealChannel\""
par RGG.node[72].port$o[5].channel typename "\"ned.IdealChannel\""
par RGG.node[42].port$o[14].channel typename "\"ned.IdealChannel\""
par RGG.node[73].port$o[8].channel typename "\"ned.IdealChannel\""
par RGG.node[42].port$o[15].channel typename "\"ned.IdealChannel\""
par RGG.node[76].port$o[6].channel typename "\"ned.IdealChannel\""
par RGG.node[42].port$o[16].channel typename "\"ned.IdealChannel\""
par RGG.node[77].port$o[11].channel typename "\"ned.IdealChannel\""
par RGG.node[42].port$o[17].channel typename "\"ned.IdealChannel\""
par RGG.node[92].port$o[7].channel typename "\"ned.IdealChannel\""
par RGG.node[42].port$o[18].channel typename "\"ned.IdealChannel\""
par RGG.node[95].port$o[7].channel typename "\"ned.IdealChannel\""
par RGG.node[42].port$o[19].channel typename "\"ned.IdealChannel\""
par RGG.node[99].port$o[13].channel typename "\"ned.IdealChannel\""
par RGG.node[43].port$o[13].channel typename "\"ned.IdealChannel\""
par RGG.node[47].port$o[12].channel typename "\"ned.IdealChannel\""
par RGG.node[43].port$o[14].channel typename "\"ned.IdealChannel\""
par RGG.node[49].port$o[13].channel typename "\"ned.IdealChannel\""
par RGG.node[43].port$o[15].channel typename "\"ned.IdealChannel\""
par RGG.node[59].port$o[4].channel typename "\"ned.IdealChannel\""
par RGG.node[43].port$o[16].channel typename "\"ned.IdealChannel\""
par RGG.node[64].port$o[6].channel typename "\"ned.IdealChannel\""
par RGG.node[43].port$o[17].channel typename "\"ned.IdealChannel\""
par RGG.node[68].port$o[11].channel typename "\"ned.IdealChannel\""
par RGG.node[43].port$o[18].channel typename "\"ned.IdealChannel\""
par RGG.node[99].port$o[14].channel typename "\"ned.IdealChannel\""
par RGG.node[44].port$o[5].channel typename "\"ned.IdealChannel\""
par RGG.node[48].port$o[4].channel typename "\"ned.IdealChannel\""
par RGG.node[44].port$o[6].channel typename "\"ned.IdealChannel\""
par RGG.node[50].port$o[7].channel typename "\"ned.IdealChannel\""
par RGG.node[44].port$o[7].channel typename "\"ned.IdealChannel\""
par RGG.node[54].port$o[7].channel typename "\"ned.IdealChannel\""
par RGG.node[44].port$o[8].channel typename "\"ned.IdealChannel\""
par RGG.node[58].port$o[5].channel typename "\"ned.IdealChannel\""
par RGG.node[44].port$o[9].channel typename "\"ned.IdealChannel\""
par RGG.node[65].port$o[7].channel typename "\"ned.IdealChannel\""
par RGG.node[44].port$o[10].channel typename "\"ned.IdealChannel\""
par RGG.node[70].port$o[7].channel typename "\"ned.IdealChannel\""
par RGG.node[44].port$o[11].channel typename "\"ned.IdealChannel\""
par RGG.node[79].port$o[7].channel typename "\"ned.IdealChannel\""
par RGG.node[44].port$o[12].channel typename "\"ned.IdealChannel\""
par RGG.node[82].port$o[6].channel typename "\"ned.IdealChannel\""
par RGG.node[44].port$o[13].channel typename "\"ned.IdealChannel\""
par RGG.node[91].port$o[9].channel typename "\"ned.IdealChannel\""
par RGG.node[45].port$o[15].channel typename "\"ned.IdealChannel\""
par RGG.node[47].port$o[13].channel typename "\"ned.IdealChannel\""
par RGG.node[45].port$o[16].channel typename "\"ned.IdealChannel\""
par RGG.node[49].port$o[14].channel typename "\"ned.IdealChannel\""
par RGG.node[45].port$o[17].channel typename "\"ned.IdealChannel\""
par RGG.node[52].port$o[13].channel typename "\"ned.IdealChannel\""
par RGG.node[45].port$o[18].channel typename "\"ned.IdealChannel\""
par RGG.node[56].port$o[10].channel typename "\"ned.IdealChannel\""
par RGG.node[45].port$o[19].channel typename "\"ned.IdealChannel\""
par RGG.node[73].port$o[9].channel typename "\"ned.IdealChannel\""
par RGG.node[45].port$o[20].channel typename "\"ned.IdealChannel\""
par RGG.node[74].port$o[10].channel typename "\"ned.IdealChannel\""
par RGG.node[45].port$o[21].channel typename "\"ned.IdealChannel\""
par RGG.node[77].port$o[12].channel typename "\"ned.IdealChannel\""
par RGG.node[45].port$o[22].channel typename "\"ned.IdealChannel\""
par RGG.node[80].port$o[11].channel typename "\"ned.IdealChannel\""
par RGG.node[45].port$o[23].channel typename "\"ned.IdealChannel\""
par RGG.node[83].port$o[10].channel typename "\"ned.IdealChannel\""
par RGG.node[45].port$o[24].channel typename "\"ned.IdealChannel\""
par RGG.node[92].port$o[8].channel typename "\"ned.IdealChannel\""
par RGG.node[45].port$o[25].channel typename "\"ned.IdealChannel\""
par RGG.node[95].port$o[8].channel typename "\"ned.IdealChannel\""
par RGG.node[45].port$o[26].channel typename "\"ned.IdealChannel\""
par RGG.node[99].port$o[15].channel typename "\"ned.IdealChannel\""
par RGG.node[46].port$o[8].channel typename "\"ned.IdealChannel\""
par RGG.node[51].port$o[9].channel typename "\"ned.IdealChannel\""
par RGG.node[46].port$o[9].channel typename "\"ned.IdealChannel\""
par RGG.node[53].port$o[3].channel typename "\"ned.IdealChannel\""
par RGG.node[46].port$o[10].channel typename "\"ned.IdealChannel\""
par RGG.node[55].port$o[9].channel typename "\"ned.IdealChannel\""
par RGG.node[46].port$o[11].channel typename "\"ned.IdealChannel\""
par RGG.node[62].port$o[3].channel typename "\"ned.IdealChannel\""
par RGG.node[46].port$o[12].channel typename "\"ned.IdealChannel\""
par RGG.node[63].port$o[5].channel typename "\"ned.IdealChannel\""
par RGG.node[46].port$o[13].channel typename "\"ned.IdealChannel\""
par RGG.node[67].port$o[6].channel typename "\"ned.IdealChannel\""
par RGG.node[46].port$o[14].channel typename "\"ned.IdealChannel\""
par RGG.node[70].port$o[8].channel typename "\"ned.IdealChannel\""
[...]
par RGG.node[78].port$o[6].channel typename "\"ned.IdealChannel\""
par RGG.node[72].port$o[10].channel typename "\"ned.IdealChannel\""
par RGG.node[92].port$o[12].channel typename "\"ned.IdealChannel\""
par RGG.node[73].port$o[14].channel typename "\"ned.IdealChannel\""
par RGG.node[74].port$o[18].channel typename "\"ned.IdealChannel\""
par RGG.node[73].port$o[15].channel typename "\"ned.IdealChannel\""
par RGG.node[76].port$o[11].channel typename "\"ned.IdealChannel\""
par RGG.node[73].port$o[16].channel typename "\"ned.IdealChannel\""
par RGG.node[77].port$o[18].channel typename "\"ned.IdealChannel\""
par RGG.node[73].port$o[17].channel typename "\"ned.IdealChannel\""
par RGG.node[83].port$o[18].channel typename "\"ned.IdealChannel\""
par RGG.node[73].port$o[18].channel typename "\"ned.IdealChannel\""
par RGG.node[86].port$o[9].channel typename "\"ned.IdealChannel\""
par RGG.node[73].port$o[19].channel typename "\"ned.IdealChannel\""
par RGG.node[92].port$o[13].channel typename "\"ned.IdealChannel\""
par RGG.node[73].port$o[20].channel typename "\"ned.IdealChannel\""
par RGG.node[95].port$o[12].channel typename "\"ned.IdealChannel\""
par RGG.node[73].port$o[21].channel typename "\"ned.IdealChannel\""
par RGG.node[96].port$o[10].channel typename "\"ned.IdealChannel\""
par RGG.node[74].port$o[19].channel typename "\"ned.IdealChannel\""
par RGG.node[77].port$o[19].channel typename "\"ned.IdealChannel\""
par RGG.node[74].port$o[20].channel typename "\"ned.IdealChannel\""
par RGG.node[80].port$o[21].channel typename "\"ned.IdealChannel\""
par RGG.node[74].port$o[21].channel typename "\"ned.IdealChannel\""
par RGG.node[83].port$o[19].channel typename "\"ned.IdealChannel\""
par RGG.node[74].port$o[22].channel typename "\"ned.IdealChannel\""
par RGG.node[86].port$o[10].channel typename "\"ned.IdealChannel\""
par RGG.node[74].port$o[23].channel typename "\"ned.IdealChannel\""
par RGG.node[94].port$o[17].channel typename "\"ned.IdealChannel\""
par RGG.node[74].port$o[24].channel typename "\"ned.IdealChannel\""
par RGG.node[96].port$o[11].channel typename "\"ned.IdealChannel\""
par RGG.node[74].port$o[25].channel typename "\"ned.IdealChannel\""
par RGG.node[97].port$o[20].channel typename "\"ned.IdealChannel\""
par RGG.node[74].port$o[26].channel typename "\"ned.IdealChannel\""
par RGG.node[98].port$o[18].channel typename "\"ned.IdealChannel\""
par RGG.node[75].port$o[10].channel typename "\"ned.IdealChannel\""
par RGG.node[79].port$o[17].channel typename "\"ned.IdealChannel\""
par RGG.node[75].port$o[11].channel typename "\"ned.IdealChannel\""
par RGG.node[81].port$o[3].channel typename "\"ned.IdealChannel\""
par RGG.node[75].port$o[12].channel typename "\"ned.IdealChannel\""
par RGG.node[87].port$o[6].channel typename "\"ned.IdealChannel\""
par RGG.node[76].port$o[12].channel typename "\"ned.IdealChannel\""
par RGG.node[78].port$o[7].channel typename "\"ned.IdealChannel\""
par RGG.node[76].port$o[13].channel typename "\"ned.IdealChannel\""
par RGG.node[92].port$o[14].channel typename "\"ned.IdealChannel\""
par RGG.node[76].port$o[14].channel typename "\"ned.IdealChannel\""
par RGG.node[95].port$o[13].channel typename "\"ned.IdealChannel\""
par RGG.node[77].port$o[20].channel typename "\"ned.IdealChannel\""
par RGG.node[80].port$o[22].channel typename "\"ned.IdealChannel\""
par RGG.node[77].port$o[21].channel typename "\"ned.IdealChannel\""
par RGG.node[94].port$o[18].channel typename "\"ned.IdealChannel\""
par RGG.node[77].port$o[22].channel typename "\"ned.IdealChannel\""
par RGG.node[98].port$o[19].channel typename "\"ned.IdealChannel\""
par RGG.node[77].port$o[23].channel typename "\"ned.IdealChannel\""
par RGG.node[99].port$o[20].channel typename "\"ned.IdealChannel\""
par RGG.node[79].port$o[18].channel typename "\"ned.IdealChannel\""
par RGG.node[80].port$o[23].channel typename "\"ned.IdealChannel\""
par RGG.node[79].port$o[19].channel typename "\"ned.IdealChannel\""
par RGG.node[82].port$o[16].channel typename "\"ned.IdealChannel\""
par RGG.node[79].port$o[20].channel typename "\"ned.IdealChannel\""
par RGG.node[87].port$o[7].channel typename "\"ned.IdealChannel\""
par RGG.node[79].port$o[21].channel typename "\"ned.IdealChannel\""
par RGG.node[94].port$o[19].channel typename "\"ned.IdealChannel\""
par RGG.node[79].port$o[22].channel typename "\"ned.IdealChannel\""
par RGG.node[97].port$o[21].channel typename "\"ned.IdealChannel\""
par RGG.node[79].port$o[23].channel typename "\"ned.IdealChannel\""
par RGG.node[98].port$o[20].channel typename "\"ned.IdealChannel\""
par RGG.node[80].port$o[24].channel typename "\"ned.IdealChannel\""
par RGG.node[83].port$o[20].channel typename "\"ned.IdealChannel\""
par RGG.node[80].port$o[25].channel typename "\"ned.IdealChannel\""
par RGG.node[94].port$o[20].channel typename "\"ned.IdealChannel\""
par RGG.node[80].port$o[26].channel typename "\"ned.IdealChannel\""
par RGG.node[97].port$o[22].channel typename "\"ned.IdealChannel\""
par RGG.node[80].port$o[27].channel typename "\"ned.IdealChannel\""
par RGG.node[98].port$o[21].channel typename "\"ned.IdealChannel\""
par RGG.node[81].port$o[4].channel typename "\"ned.IdealChannel\""
par RGG.node[87].port$o[8].channel typename "\"ned.IdealChannel\""
par RGG.node[82].port$o[17].channel typename "\"ned.IdealChannel\""
par RGG.node[85].port$o[15].channel typename "\"ned.IdealChannel\""
par RGG.node[82].port$o[18].channel typename "\"ned.IdealChannel\""
par RGG.node[91].port$o[19].channel typename "\"ned.IdealChannel\""
par RGG.node[82].port$o[19].channel typename "\"ned.IdealChannel\""
par RGG.node[97].port$o[23].channel typename "\"ned.IdealChannel\""
par RGG.node[82].port$o[20].channel typename "\"ned.IdealChannel\""
par RGG.node[98].port$o[22].channel typename "\"ned.IdealChannel\""
par RGG.node[83].port$o[21].channel typename "\"ned.IdealChannel\""
par RGG.node[86].port$o[11].channel typename "\"ned.IdealChannel\""
par RGG.node[83].port$o[22].channel typename "\"ned.IdealChannel\""
par RGG.node[92].port$o[15].channel typename "\"ned.IdealChannel\""
par RGG.node[83].port$o[23].channel typename "\"ned.IdealChannel\""
par RGG.node[95].port$o[14].channel typename "\"ned.IdealChannel\""
par RGG.node[83].port$o[24].channel typename "\"ned.IdealChannel\""
par RGG.node[96].port$o[12].channel typename "\"ned.IdealChannel\""
par RGG.node[83].port$o[25].channel typename "\"ned.IdealChannel\""
par RGG.node[97].port$o[24].channel typename "\"ned.IdealChannel\""
par RGG.node[84].port$o[5].channel typename "\"ned.IdealChannel\""
par RGG.node[88].port$o[4].channel typename "\"ned.IdealChannel\""
par RGG.node[84].port$o[6].channel typename "\"ned.IdealChannel\""
par RGG.node[90].port$o[10].channel typename "\"ned.IdealChannel\""
par RGG.node[84].port$o[7].channel typename "\"ned.IdealChannel\""
par RGG.node[93].port$o[6].channel typename "\"ned.IdealChannel\""
par RGG.node[85].port$o[16].channel typename "\"ned.IdealChannel\""
par RGG.node[90].port$o[11].channel typename "\"ned.IdealChannel\""
par RGG.node[85].port$o[17].channel typename "\"ned.IdealChannel\""
par RGG.node[91].port$o[20].channel typename "\"ned.IdealChannel\""
par RGG.node[85].port$o[18].channel typename "\"ned.IdealChannel\""
par RGG.node[93].port$o[7].channel typename "\"ned.IdealChannel\""
par RGG.node[85].port$o[19].channel typename "\"ned.IdealChannel\""
par RGG.node[97].port$o[25].channel typename "\"ned.IdealChannel\""
par RGG.node[86].port$o[12].channel typename "\"ned.IdealChannel\""
par RGG.node[88].port$o[5].channel typename "\"ned.IdealChannel\""
par RGG.node[86].port$o[13].channel typename "\"ned.IdealChannel\""
par RGG.node[90].port$o[12].channel typename "\"ned.IdealChannel\""
par RGG.node[86].port$o[14].channel typename "\"ned.IdealChannel\""
par RGG.node[96].port$o[13].channel typename "\"ned.IdealChannel\""
par RGG.node[88].port$o[6].channel typename "\"ned.IdealChannel\""
par RGG.node[90].port$o[13].channel typename "\"ned.IdealChannel\""
par RGG.node[88].port$o[7].channel typename "\"ned.IdealChannel\""
par RGG.node[93].port$o[8].channel typename "\"ned.IdealChannel\""
par RGG.node[90].port$o[14].channel typename "\"ned.IdealChannel\""
par RGG.node[93].port$o[9].channel typename "\"ned.IdealChannel\""
par RGG.node[90].port$o[15].channel typename "\"ned.IdealChannel\""
par RGG.node[96].port$o[14].channel typename "\"ned.IdealChannel\""
par RGG.node[91].port$o[21].channel typename "\"ned.IdealChannel\""
par RGG.node[97].port$o[26].channel typename "\"ned.IdealChannel\""
par RGG.node[92].port$o[16].channel typename "\"ned.IdealChannel\""
par RGG.node[95].port$o[15].channel typename "\"ned.IdealChannel\""
par RGG.node[94].port$o[21].channel typename "\"ned.IdealChannel\""
par RGG.node[97].port$o[27].channel typename "\"ned.IdealChannel\""
par RGG.node[94].port$o[22].channel typename "\"ned.IdealChannel\""
par RGG.node[98].port$o[23].channel typename "\"ned.IdealChannel\""
par RGG.node[97].port$o[28].channel typename "\"ned.IdealChannel\""
par RGG.node[98].port$o[24].channel typename "\"ned.IdealChannel\""
par RGG.node[0] typename "\"randomw.Node\""
par RGG.node[0] xCor 0.944967
par RGG.node[0] yCor 0.18555
par RGG.node[1] typename "\"randomw.Node\""
par RGG.node[1] xCor 0.881243
par RGG.node[1] yCor 0.289121
par RGG.node[2] typename "\"randomw.Node\""
par RGG.node[2] xCor 0.0329049
par RGG.node[2] yCor 0.165492
par RGG.node[3] typename "\"randomw.Node\""
par RGG.node[3] xCor 0.584127
par RGG.node[3] yCor 0.973921
par RGG.node[4] typename "\"randomw.Node\""
par RGG.node[4] xCor 0.175346
par RGG.node[4] yCor 0.724538
par RGG.node[5] typename "\"randomw.Node\""
par RGG.node[5] xCor 0.486315
par RGG.node[5] yCor 0.832133
par RGG.node[6] typename "\"randomw.Node\""
par RGG.node[6] xCor 0.690904
par RGG.node[6] yCor 0.29314
par RGG.node[7] typename "\"randomw.Node\""
par RGG.node[7] xCor 0.216054
par RGG.node[7] yCor 0.923704
par RGG.node[8] typename "\"randomw.Node\""
par RGG.node[8] xCor 0.598185
par RGG.node[8] yCor 0.44646
par RGG.node[9] typename "\"randomw.Node\""
par RGG.node[9] xCor 0.49292
par RGG.node[9] yCor 0.339721
par RGG.node[10] typename "\"randomw.Node\""
par RGG.node[10] xCor 0.463683
par RGG.node[10] yCor 0.530397
par RGG.node[11] typename "\"randomw.Node\""
par RGG.node[11] xCor 0.410503
par RGG.node[11] yCor 0.638925
par RGG.node[12] typename "\"randomw.Node\""
par RGG.node[12] xCor 0.790191
par RGG.node[12] yCor 0.173146
par RGG.node[13] typename "\"randomw.Node\""
par RGG.node[13] xCor 0.747691
par RGG.node[13] yCor 0.430132
par RGG.node[14] typename "\"randomw.Node\""
par RGG.node[14] xCor 0.415154
par RGG.node[14] yCor 0.39406
par RGG.node[15] typename "\"randomw.Node\""
par RGG.node[15] xCor 0.494002
par RGG.node[15] yCor 0.717866
par RGG.node[16] typename "\"randomw.Node\""
par RGG.node[16] xCor 0.91716
par RGG.node[16] yCor 0.779886
par RGG.node[17] typename "\"randomw.Node\""
par RGG.node[17] xCor 0.202756
par RGG.node[17] yCor 0.941763
par RGG.node[18] typename "\"randomw.Node\""
par RGG.node[18] xCor 0.842118
par RGG.node[18] yCor 0.889026
par RGG.node[19] typename "\"randomw.Node\""
par RGG.node[19] xCor 0.105881
par RGG.node[19] yCor 0.975328
par RGG.node[20] typename "\"randomw.Node\""
par RGG.node[20] xCor 0.345591
par RGG.node[20] yCor 0.176102
par RGG.node[21] typename "\"randomw.Node\""
par RGG.node[21] xCor 0.786367
par RGG.node[21] yCor 0.446982
par RGG.node[22] typename "\"randomw.Node\""
par RGG.node[22] xCor 0.343249
par RGG.node[22] yCor 0.706353
par RGG.node[23] typename "\"randomw.Node\""
par RGG.node[23] xCor 0.481768
par RGG.node[23] yCor 0.969132
par RGG.node[24] typename "\"randomw.Node\""
par RGG.node[24] xCor 0.89809
par RGG.node[24] yCor 0.552285
par RGG.node[25] typename "\"randomw.Node\""
par RGG.node[25] xCor 0.319074
par RGG.node[25] yCor 0.35323
par RGG.node[26] typename "\"randomw.Node\""
par RGG.node[26] xCor 0.414917
par RGG.node[26] yCor 0.825773
par RGG.node[27] typename "\"randomw.Node\""
par RGG.node[27] xCor 0.731387
par RGG.node[27] yCor 0.424264
par RGG.node[28] typename "\"randomw.Node\""
par RGG.node[28] xCor 0.3889
par RGG.node[28] yCor 0.649608
par RGG.node[29] typename "\"randomw.Node\""
par RGG.node[29] xCor 0.0647104
par RGG.node[29] yCor 0.653977
par RGG.node[30] typename "\"randomw.Node\""
par RGG.node[30] xCor 0.327182
par RGG.node[30] yCor 0.82677
par RGG.node[31] typename "\"randomw.Node\""
par RGG.node[31] xCor 0.337524
par RGG.node[31] yCor 0.720283
par RGG.node[32] typename "\"randomw.Node\""
par RGG.node[32] xCor 0.950943
par RGG.node[32] yCor 0.445228
par RGG.node[33] typename "\"randomw.Node\""
par RGG.node[33] xCor 0.419582
par RGG.node[33] yCor 0.47439
par RGG.node[34] typename "\"randomw.Node\""
par RGG.node[34] xCor 0.164817
par RGG.node[34] yCor 0.516999
par RGG.node[35] typename "\"randomw.Node\""
par RGG.node[35] xCor 0.521394
par RGG.node[35] yCor 0.847571
par RGG.node[36] typename "\"randomw.Node\""
par RGG.node[36] xCor 0.138431
par RGG.node[36] yCor 0.0281927
par RGG.node[37] typename "\"randomw.Node\""
par RGG.node[37] xCor 0.186693
par RGG.node[37] yCor 0.199497
par RGG.node[38] typename "\"randomw.Node\""
par RGG.node[38] xCor 0.522187
par RGG.node[38] yCor 0.405377
par RGG.node[39] typename "\"randomw.Node\""
par RGG.node[39] xCor 0.187915
par RGG.node[39] yCor 0.460764
par RGG.node[40] typename "\"randomw.Node\""
par RGG.node[40] xCor 0.689546
par RGG.node[40] yCor 0.653613
par RGG.node[41] typename "\"randomw.Node\""
par RGG.node[41] xCor 0.00203479
par RGG.node[41] yCor 0.786452
par RGG.node[42] typename "\"randomw.Node\""
par RGG.node[42] xCor 0.293638
par RGG.node[42] yCor 0.396925
par RGG.node[43] typename "\"randomw.Node\""
par RGG.node[43] xCor 0.33429
par RGG.node[43] yCor 0.815358
par RGG.node[44] typename "\"randomw.Node\""
par RGG.node[44] xCor 0.959973
par RGG.node[44] yCor 0.552545
par RGG.node[45] typename "\"randomw.Node\""
par RGG.node[45] xCor 0.399175
par RGG.node[45] yCor 0.504559
par RGG.node[46] typename "\"randomw.Node\""
par RGG.node[46] xCor 0.740064
par RGG.node[46] yCor 0.279873
par RGG.node[47] typename "\"randomw.Node\""
par RGG.node[47] xCor 0.392337
par RGG.node[47] yCor 0.687867
par RGG.node[48] typename "\"randomw.Node\""
par RGG.node[48] xCor 0.961891
par RGG.node[48] yCor 0.624468
par RGG.node[49] typename "\"randomw.Node\""
par RGG.node[49] xCor 0.516527
par RGG.node[49] yCor 0.682519
par RGG.node[50] typename "\"randomw.Node\""
par RGG.node[50] xCor 0.82004
par RGG.node[50] yCor 0.622869
par RGG.node[51] typename "\"randomw.Node\""
par RGG.node[51] xCor 0.684954
par RGG.node[51] yCor 0.392473
par RGG.node[52] typename "\"randomw.Node\""
par RGG.node[52] xCor 0.601403
par RGG.node[52] yCor 0.528766
par RGG.node[53] typename "\"randomw.Node\""
par RGG.node[53] xCor 0.911343
par RGG.node[53] yCor 0.121087
par RGG.node[54] typename "\"randomw.Node\""
par RGG.node[54] xCor 0.852669
par RGG.node[54] yCor 0.598156
par RGG.node[55] typename "\"randomw.Node\""
par RGG.node[55] xCor 0.688381
par RGG.node[55] yCor 0.406908
par RGG.node[56] typename "\"randomw.Node\""
par RGG.node[56] xCor 0.580075
par RGG.node[56] yCor 0.596165
par RGG.node[57] typename "\"randomw.Node\""
par RGG.node[57] xCor 0.925273
par RGG.node[57] yCor 0.935372
par RGG.node[58] typename "\"randomw.Node\""
par RGG.node[58] xCor 0.913192
par RGG.node[58] yCor 0.618726
par RGG.node[59] typename "\"randomw.Node\""
par RGG.node[59] xCor 0.182866
par RGG.node[59] yCor 0.989412
par RGG.node[60] typename "\"randomw.Node\""
par RGG.node[60] xCor 0.120405
par RGG.node[60] yCor 0.0602098
par RGG.node[61] typename "\"randomw.Node\""
par RGG.node[61] xCor 0.403919
par RGG.node[61] yCor 0.0896016
par RGG.node[62] typename "\"randomw.Node\""
par RGG.node[62] xCor 0.914784
par RGG.node[62] yCor 0.129532
par RGG.node[63] typename "\"randomw.Node\""
par RGG.node[63] xCor 0.592641
par RGG.node[63] yCor 0.187087
par RGG.node[64] typename "\"randomw.Node\""
par RGG.node[64] xCor 0.23803
par RGG.node[64] yCor 0.979254
par RGG.node[65] typename "\"randomw.Node\""
par RGG.node[65] xCor 0.851362
par RGG.node[65] yCor 0.576822
par RGG.node[66] typename "\"randomw.Node\""
par RGG.node[66] xCor 0.272027
par RGG.node[66] yCor 0.202286
par RGG.node[67] typename "\"randomw.Node\""
par RGG.node[67] xCor 0.59128
par RGG.node[67] yCor 0.211258
par RGG.node[68] typename "\"randomw.Node\""
par RGG.node[68] xCor 0.480306
par RGG.node[68] yCor 0.800508
par RGG.node[69] typename "\"randomw.Node\""
par RGG.node[69] xCor 0.105583
par RGG.node[69] yCor 0.333707
par RGG.node[70] typename "\"randomw.Node\""
par RGG.node[70] xCor 0.928284
par RGG.node[70] yCor 0.419913
par RGG.node[71] typename "\"randomw.Node\""
par RGG.node[71] xCor 0.878723
par RGG.node[71] yCor 0.263342
par RGG.node[72] typename "\"randomw.Node\""
par RGG.node[72] xCor 0.113633
par RGG.node[72] yCor 0.37853
par RGG.node[73] typename "\"randomw.Node\""
par RGG.node[73] xCor 0.427163
par RGG.node[73] yCor 0.328647
par RGG.node[74] typename "\"randomw.Node\""
par RGG.node[74] xCor 0.578143
par RGG.node[74] yCor 0.375798
par RGG.node[75] typename "\"randomw.Node\""
par RGG.node[75] xCor 0.838619
par RGG.node[75] yCor 0.782703
par RGG.node[76] typename "\"randomw.Node\""
par RGG.node[76] xCor 0.184666
par RGG.node[76] yCor 0.282176
par RGG.node[77] typename "\"randomw.Node\""
par RGG.node[77] xCor 0.449275
par RGG.node[77] yCor 0.567641
par RGG.node[78] typename "\"randomw.Node\""
par RGG.node[78] xCor 0.0288098
par RGG.node[78] yCor 0.210366
par RGG.node[79] typename "\"randomw.Node\""
par RGG.node[79] xCor 0.792675
par RGG.node[79] yCor 0.620604
par RGG.node[80] typename "\"randomw.Node\""
par RGG.node[80] xCor 0.647137
par RGG.node[80] yCor 0.486297
par RGG.node[81] typename "\"randomw.Node\""
par RGG.node[81] xCor 0.937203
par RGG.node[81] yCor 0.89796
par RGG.node[82] typename "\"randomw.Node\""
par RGG.node[82] xCor 0.905176
par RGG.node[82] yCor 0.467781
par RGG.node[83] typename "\"randomw.Node\""
par RGG.node[83] xCor 0.523882
par RGG.node[83] yCor 0.298531
par RGG.node[84] typename "\"randomw.Node\""
par RGG.node[84] xCor 0.913638
par RGG.node[84] yCor 0.0258001
par RGG.node[85] typename "\"randomw.Node\""
par RGG.node[85] xCor 0.871604
par RGG.node[85] yCor 0.273744
par RGG.node[86] typename "\"randomw.Node\""
par RGG.node[86] xCor 0.613893
par RGG.node[86] yCor 0.172502
par RGG.node[87] typename "\"randomw.Node\""
par RGG.node[87] xCor 0.790002
par RGG.node[87] yCor 0.864549
par RGG.node[88] typename "\"randomw.Node\""
par RGG.node[88] xCor 0.78611
par RGG.node[88] yCor 0.0209393
par RGG.node[89] typename "\"randomw.Node\""
par RGG.node[89] xCor 0.546436
par RGG.node[89] yCor 0.948861
par RGG.node[90] typename "\"randomw.Node\""
par RGG.node[90] xCor 0.736476
par RGG.node[90] yCor 0.120488
par RGG.node[91] typename "\"randomw.Node\""
par RGG.node[91] xCor 0.861803
par RGG.node[91] yCor 0.350796
par RGG.node[92] typename "\"randomw.Node\""
par RGG.node[92] xCor 0.291888
par RGG.node[92] yCor 0.286461
par RGG.node[93] typename "\"randomw.Node\""
par RGG.node[93] xCor 0.912703
par RGG.node[93] yCor 0.0727392
par RGG.node[94] typename "\"randomw.Node\""
par RGG.node[94] xCor 0.664723
par RGG.node[94] yCor 0.561082
par RGG.node[95] typename "\"randomw.Node\""
par RGG.node[95] xCor 0.351828
par RGG.node[95] yCor 0.268305
par RGG.node[96] typename "\"randomw.Node\""
par RGG.node[96] xCor 0.598207
par RGG.node[96] yCor 0.192965
par RGG.node[97] typename "\"randomw.Node\""
par RGG.node[97] xCor 0.706532
par RGG.node[97] yCor 0.456574
par RGG.node[98] typename "\"randomw.Node\""
par RGG.node[98] xCor 0.682255
par RGG.node[98] yCor 0.527606
par RGG.node[99] typename "\"randomw.Node\""
par RGG.node[99] xCor 0.344433
par RGG.node[99] yCor 0.618164
par RGG.host typename "\"randomw.Host\""
par RGG.host startNodeIndex 1
attr mutable ""
par RGG.host startNode 11
par RGG typename "\"randomw.simulations.RGG\""
par RGG numNodes 100
par RGG rc 0.25
par RGG enableDuplication true
attr mutable ""
par RGG noBacktracking false
attr mutable ""
par RGG numWalkers 1

