version 3
run General-141-20250904-14:13:15-15436
attr configname General
attr datetime 20250904-14:13:15
attr datetimef 20250904-141315
attr experiment General
attr inifile omnetpp.ini
attr iterationvars ""
attr iterationvarsd ""
attr iterationvarsf ""
attr measurement ""
attr network TaxiNetwork
attr processid 15436
attr repetition 141
attr replication #141
attr resultdir results
attr runnumber 141
attr seedset 141
config network TaxiNetwork
config seed-set 141
config num-rngs 1
config sim-time-limit 10s
config repeat 500
config *.numWalkers 1
config *.enableDuplication true
config *.rc 700
config **.node[0].xCor 2933
config **.node[0].yCor 2747
config **.node[1].xCor 2919
config **.node[1].yCor 2817
config **.node[2].xCor 2910
config **.node[2].yCor 2861
config **.node[3].xCor 2429
config **.node[3].yCor 2851
config **.node[4].xCor 2908
config **.node[4].yCor 2714
config **.node[5].xCor 2606
config **.node[5].yCor 2722
config **.node[6].xCor 2575
config **.node[6].yCor 2753
config **.node[7].xCor 2654
config **.node[7].yCor 2513
config **.node[8].xCor 2773
config **.node[8].yCor 2580
config **.node[9].xCor 3043
config **.node[9].yCor 2780
config **.node[10].xCor 3020
config **.node[10].yCor 2813
config **.node[11].xCor 2599
config **.node[11].yCor 2300
config **.node[12].xCor 2917
config **.node[12].yCor 2698
config **.node[13].xCor 2625
config **.node[13].yCor 2641
config **.node[14].xCor 2604
config **.node[14].yCor 2790
config **.node[15].xCor 2786
config **.node[15].yCor 3082
config **.node[16].xCor 2603
config **.node[16].yCor 2802
config **.node[17].xCor 2637
config **.node[17].yCor 2869
config **.node[18].xCor 2675
config **.node[18].yCor 2955
config **.node[19].xCor 2845
config **.node[19].yCor 2937
config **.node[20].xCor 2860
config **.node[20].yCor 2888
config **.node[21].xCor 2843
config **.node[21].yCor 4158
config **.node[22].xCor 2852
config **.node[22].yCor 4017
config **.node[23].xCor 2892
config **.node[23].yCor 4961
config **.node[24].xCor 2313
config **.node[24].yCor 3993
config **.node[25].xCor 2891
config **.node[25].yCor 4959
config **.node[26].xCor 2370
config **.node[26].yCor 4050
config **.node[27].xCor 2788
config **.node[27].yCor 3958
config **.node[28].xCor 2819
config **.node[28].yCor 4428
config **.node[29].xCor 2790
config **.node[29].yCor 3761
config **.node[30].xCor 2809
config **.node[30].yCor 2908
config **.node[31].xCor 2919
config **.node[31].yCor 3575
config **.node[32].xCor 2946
config **.node[32].yCor 3466
config **.node[33].xCor 2911
config **.node[33].yCor 3453
config **.node[34].xCor 2370
config **.node[34].yCor 3656
config **.node[35].xCor 2438
config **.node[35].yCor 3738
config **.node[36].xCor 2737
config **.node[36].yCor 3570
config **.node[37].xCor 2921
config **.node[37].yCor 3698
config **.node[38].xCor 2907
config **.node[38].yCor 5197
config **.node[39].xCor 2860
config **.node[39].yCor 3852
config **.node[40].xCor 2927
config **.node[40].yCor 3684
config **.node[41].xCor 3023
config **.node[41].yCor 5313
config **.node[42].xCor 3220
config **.node[42].yCor 5811
config **.node[43].xCor 3432
config **.node[43].yCor 5715
config **.node[44].xCor 2754
config **.node[44].yCor 2463
config **.node[45].xCor 2646
config **.node[45].yCor 2673
config **.node[46].xCor 3051
config **.node[46].yCor 2792
config **.node[47].xCor 1666
config **.node[47].yCor 3697
config **.node[48].xCor 1662
config **.node[48].yCor 3694
config **.node[49].xCor 1664
config **.node[49].yCor 3667
config **.node[50].xCor 1660
config **.node[50].yCor 3664
config **.node[51].xCor 1710
config **.node[51].yCor 3573
config **.node[52].xCor 2082
config **.node[52].yCor 2650
config **.node[53].xCor 2086
config **.node[53].yCor 2657
config **.node[54].xCor 2257
config **.node[54].yCor 3232
config **.node[55].xCor 2258
config **.node[55].yCor 3225
config **.node[56].xCor 1926
config **.node[56].yCor 2570
config **.node[57].xCor 1926
config **.node[57].yCor 2576
config **.node[58].xCor 2104
config **.node[58].yCor 1758
config **.node[59].xCor 1957
config **.node[59].yCor 1826
config **.node[60].xCor 3473
config **.node[60].yCor 1523
config **.node[61].xCor 3335
config **.node[61].yCor 1726
config **.node[62].xCor 3478
config **.node[62].yCor 1517
config **.node[63].xCor 3386
config **.node[63].yCor 2119
config **.node[64].xCor 3474
config **.node[64].yCor 1762
config **.node[65].xCor 3797
config **.node[65].yCor 2099
config **.node[66].xCor 3642
config **.node[66].yCor 2136
config **.node[67].xCor 3481
config **.node[67].yCor 2334
config **.node[68].xCor 3088
config **.node[68].yCor 1505
config **.node[69].xCor 3037
config **.node[69].yCor 1693
config **.node[70].xCor 3026
config **.node[70].yCor 1700
config **.node[71].xCor 3019
config **.node[71].yCor 669
config **.node[72].xCor 3513
config **.node[72].yCor 1358
config **.node[73].xCor 3545
config **.node[73].yCor 1230
config **.node[74].xCor 4228
config **.node[74].yCor 4220
config **.node[75].xCor 3379
config **.node[75].yCor 1207
config **.node[76].xCor 3596
config **.node[76].yCor 963
config **.node[77].xCor 3637
config **.node[77].yCor 1188
config **.node[78].xCor 3759
config **.node[78].yCor 1030
config **.node[79].xCor 2918
config **.node[79].yCor 1455
config **.node[80].xCor 2711
config **.node[80].yCor 1297
config **.node[81].xCor 439
config **.node[81].yCor 1623
config **.node[82].xCor 2857
config **.node[82].yCor 3581
config **.node[83].xCor 2858
config **.node[83].yCor 3584
config **.node[84].xCor 2999
config **.node[84].yCor 2636
config **.node[85].xCor 2905
config **.node[85].yCor 2778
config **.node[86].xCor 2653
config **.node[86].yCor 2845
config **.node[87].xCor 2864
config **.node[87].yCor 2836
config **.node[88].xCor 2426
config **.node[88].yCor 2892
config **.node[89].xCor 2964
config **.node[89].yCor 2804
config **.node[90].xCor 2586
config **.node[90].yCor 3135
config **.node[91].xCor 2864
config **.node[91].yCor 2980
config **.node[92].xCor 2527
config **.node[92].yCor 3219
config **.node[93].xCor 2863
config **.node[93].yCor 3142
config **.node[94].xCor 2485
config **.node[94].yCor 3269
config **.node[95].xCor 2653
config **.node[95].yCor 1065
config **.node[96].xCor 4062
config **.node[96].yCor 400
config **.node[97].xCor 5762
config **.node[97].yCor 3023
config **.node[98].xCor 1414
config **.node[98].yCor 3461
config **.node[99].xCor 2911
config **.node[99].yCor 1737
config **.node[100].xCor 2595
config **.node[100].yCor 2299
config **.node[101].xCor 2702
config **.node[101].yCor 3419
config **.node[102].xCor 2813
config **.node[102].yCor 3307
config **.node[103].xCor 2638
config **.node[103].yCor 2258
config **.node[104].xCor 2590
config **.node[104].yCor 3125
config **.node[105].xCor 1856
config **.node[105].yCor 2990
config **.node[106].xCor 1894
config **.node[106].yCor 2239
config **.node[107].xCor 383
config **.node[107].yCor 1251
config **.node[108].xCor 3447
config **.node[108].yCor 5489
config **.node[109].xCor 3450
config **.node[109].yCor 5697
config **.node[110].xCor 2719
config **.node[110].yCor 1920
config **.node[111].xCor 2085
config **.node[111].yCor 2389
config **.node[112].xCor 1910
config **.node[112].yCor 2548
config **.node[113].xCor 2069
config **.node[113].yCor 2050
config **.node[114].xCor 2184
config **.node[114].yCor 2209
config **.node[115].xCor 2278
config **.node[115].yCor 2390
config **.node[116].xCor 2249
config **.node[116].yCor 2299
config **.node[117].xCor 2356
config **.node[117].yCor 2303
config **.node[118].xCor 2192
config **.node[118].yCor 2475
config **.node[119].xCor 1720
config **.node[119].yCor 2911
config **.node[120].xCor 2400
config **.node[120].yCor 2887
config **.node[121].xCor 3344
config **.node[121].yCor 1890
config **.node[122].xCor 3136
config **.node[122].yCor 2418
config **.node[123].xCor 3243
config **.node[123].yCor 2525
config **.node[124].xCor 2396
config **.node[124].yCor 1267
config **.node[125].xCor 467
config **.node[125].yCor 1875
config **.node[126].xCor 3506
config **.node[126].yCor 1221
config **.node[127].xCor 1034
config **.node[127].yCor 1474
config **.node[128].xCor 2908
config **.node[128].yCor 1784
config **.node[129].xCor 2876
config **.node[129].yCor 1761
config **.node[130].xCor 2849
config **.node[130].yCor 1795
config **.node[131].xCor 3029
config **.node[131].yCor 1859
config **.node[132].xCor 2924
config **.node[132].yCor 1848
config **.node[133].xCor 3493
config **.node[133].yCor 1559
config **.node[134].xCor 2760
config **.node[134].yCor 1761
config **.node[135].xCor 1644
config **.node[135].yCor 3755
config **.node[136].xCor 1463
config **.node[136].yCor 3432
config **.node[137].xCor 2595
config **.node[137].yCor 2849
config **.node[138].xCor 2581
config **.node[138].yCor 2867
config **.node[139].xCor 2524
config **.node[139].yCor 2911
config **.node[140].xCor 2570
config **.node[140].yCor 2924
config **.node[141].xCor 2676
config **.node[141].yCor 2890
config **.node[142].xCor 2666
config **.node[142].yCor 2876
config **.node[143].xCor 3735
config **.node[143].yCor 1726
config **.node[144].xCor 1637
config **.node[144].yCor 3438

vector 0 TaxiNetwork.node[138] visitedPerTimestep ETV
vector 1 TaxiNetwork.node[46] visitedPerTimestep ETV
vector 2 TaxiNetwork.node[103] visitedPerTimestep ETV
vector 3 TaxiNetwork.node[3] visitedPerTimestep ETV
vector 4 TaxiNetwork.node[2] visitedPerTimestep ETV
vector 5 TaxiNetwork.node[13] visitedPerTimestep ETV
vector 6 TaxiNetwork.node[141] visitedPerTimestep ETV
vector 7 TaxiNetwork.node[15] visitedPerTimestep ETV
vector 8 TaxiNetwork.node[1] visitedPerTimestep ETV
vector 9 TaxiNetwork.node[140] visitedPerTimestep ETV
vector 10 TaxiNetwork.node[100] visitedPerTimestep ETV
vector 11 TaxiNetwork.node[142] visitedPerTimestep ETV
vector 12 TaxiNetwork.node[84] visitedPerTimestep ETV
vector 13 TaxiNetwork.node[91] visitedPerTimestep ETV
vector 14 TaxiNetwork.node[6] visitedPerTimestep ETV
vector 15 TaxiNetwork.node[55] visitedPerTimestep ETV
vector 16 TaxiNetwork.node[14] visitedPerTimestep ETV
vector 17 TaxiNetwork.node[85] visitedPerTimestep ETV
vector 18 TaxiNetwork.node[89] visitedPerTimestep ETV
vector 19 TaxiNetwork.node[11] visitedPerTimestep ETV
vector 20 TaxiNetwork.node[114] visitedPerTimestep ETV
vector 21 TaxiNetwork.node[70] visitedPerTimestep ETV
vector 22 TaxiNetwork.node[133] visitedPerTimestep ETV
vector 23 TaxiNetwork.node[129] visitedPerTimestep ETV
vector 24 TaxiNetwork.node[69] visitedPerTimestep ETV
vector 25 TaxiNetwork.node[79] visitedPerTimestep ETV
vector 26 TaxiNetwork.node[61] visitedPerTimestep ETV
vector 27 TaxiNetwork.node[132] visitedPerTimestep ETV
vector 28 TaxiNetwork.node[134] visitedPerTimestep ETV
vector 29 TaxiNetwork.node[110] visitedPerTimestep ETV
vector 30 TaxiNetwork.node[117] visitedPerTimestep ETV
vector 31 TaxiNetwork.node[113] visitedPerTimestep ETV
vector 32 TaxiNetwork.node[106] visitedPerTimestep ETV
vector 33 TaxiNetwork.node[57] visitedPerTimestep ETV
vector 34 TaxiNetwork.node[120] visitedPerTimestep ETV
vector 35 TaxiNetwork.node[0] visitedPerTimestep ETV
vector 36 TaxiNetwork.node[19] visitedPerTimestep ETV
vector 37 TaxiNetwork.node[44] visitedPerTimestep ETV
vector 38 TaxiNetwork.node[56] visitedPerTimestep ETV
vector 39 TaxiNetwork.node[116] visitedPerTimestep ETV
vector 40 TaxiNetwork.node[111] visitedPerTimestep ETV
vector 41 TaxiNetwork.node[17] visitedPerTimestep ETV
vector 42 TaxiNetwork.node[8] visitedPerTimestep ETV
vector 43 TaxiNetwork.node[52] visitedPerTimestep ETV
vector 44 TaxiNetwork.node[104] visitedPerTimestep ETV
vector 45 TaxiNetwork.node[9] visitedPerTimestep ETV
vector 46 TaxiNetwork.node[4] visitedPerTimestep ETV
vector 47 TaxiNetwork.node[118] visitedPerTimestep ETV
vector 48 TaxiNetwork.node[93] visitedPerTimestep ETV
vector 49 TaxiNetwork.node[115] visitedPerTimestep ETV
vector 50 TaxiNetwork.node[45] visitedPerTimestep ETV
vector 51 TaxiNetwork.node[87] visitedPerTimestep ETV
vector 52 TaxiNetwork.node[18] visitedPerTimestep ETV
vector 53 TaxiNetwork.node[139] visitedPerTimestep ETV
vector 54 TaxiNetwork.node[101] visitedPerTimestep ETV
vector 55 TaxiNetwork.node[102] visitedPerTimestep ETV
vector 56 TaxiNetwork.node[35] visitedPerTimestep ETV
vector 57 TaxiNetwork.node[54] visitedPerTimestep ETV
vector 58 TaxiNetwork.node[83] visitedPerTimestep ETV
vector 59 TaxiNetwork.node[26] visitedPerTimestep ETV
vector 60 TaxiNetwork.node[27] visitedPerTimestep ETV
vector 61 TaxiNetwork.node[37] visitedPerTimestep ETV
vector 62 TaxiNetwork.node[21] visitedPerTimestep ETV
vector 63 TaxiNetwork.node[40] visitedPerTimestep ETV
vector 64 TaxiNetwork.node[30] visitedPerTimestep ETV
vector 65 TaxiNetwork.node[123] visitedPerTimestep ETV
vector 66 TaxiNetwork.node[122] visitedPerTimestep ETV
vector 67 TaxiNetwork.node[130] visitedPerTimestep ETV
vector 68 TaxiNetwork.node[128] visitedPerTimestep ETV
vector 69 TaxiNetwork.node[137] visitedPerTimestep ETV
vector 70 TaxiNetwork.node[53] visitedPerTimestep ETV
vector 71 TaxiNetwork.node[92] visitedPerTimestep ETV
vector 72 TaxiNetwork.node[16] visitedPerTimestep ETV
vector 73 TaxiNetwork.node[88] visitedPerTimestep ETV
vector 74 TaxiNetwork.node[20] visitedPerTimestep ETV
vector 75 TaxiNetwork.node[5] visitedPerTimestep ETV
vector 76 TaxiNetwork.node[33] visitedPerTimestep ETV
vector 77 TaxiNetwork.node[36] visitedPerTimestep ETV
vector 78 TaxiNetwork.node[82] visitedPerTimestep ETV
vector 79 TaxiNetwork.node[12] visitedPerTimestep ETV
vector 80 TaxiNetwork.node[112] visitedPerTimestep ETV
vector 81 TaxiNetwork.node[119] visitedPerTimestep ETV
vector 82 TaxiNetwork.node[7] visitedPerTimestep ETV
vector 83 TaxiNetwork.node[94] visitedPerTimestep ETV
vector 84 TaxiNetwork.node[22] visitedPerTimestep ETV
vector 85 TaxiNetwork.node[24] visitedPerTimestep ETV
vector 86 TaxiNetwork.node[32] visitedPerTimestep ETV
vector 87 TaxiNetwork.node[34] visitedPerTimestep ETV
vector 88 TaxiNetwork.node[74] visitedPerTimestep ETV
vector 89 TaxiNetwork.node[86] visitedPerTimestep ETV
vector 90 TaxiNetwork.node[80] visitedPerTimestep ETV
vector 91 TaxiNetwork.node[99] visitedPerTimestep ETV
vector 92 TaxiNetwork.node[68] visitedPerTimestep ETV
vector 93 TaxiNetwork.node[131] visitedPerTimestep ETV
vector 94 TaxiNetwork.node[60] visitedPerTimestep ETV
vector 95 TaxiNetwork.node[65] visitedPerTimestep ETV
vector 96 TaxiNetwork.node[63] visitedPerTimestep ETV
vector 97 TaxiNetwork.node[67] visitedPerTimestep ETV
vector 98 TaxiNetwork.node[90] visitedPerTimestep ETV
vector 99 TaxiNetwork.node[105] visitedPerTimestep ETV
vector 100 TaxiNetwork.node[39] visitedPerTimestep ETV
vector 101 TaxiNetwork.node[31] visitedPerTimestep ETV
vector 102 TaxiNetwork.node[29] visitedPerTimestep ETV
vector 103 TaxiNetwork.node[121] visitedPerTimestep ETV
vector 104 TaxiNetwork.node[126] visitedPerTimestep ETV
vector 105 TaxiNetwork.node[73] visitedPerTimestep ETV
vector 106 TaxiNetwork.node[78] visitedPerTimestep ETV
vector 107 TaxiNetwork.node[66] visitedPerTimestep ETV
vector 108 TaxiNetwork.node[62] visitedPerTimestep ETV
vector 109 TaxiNetwork.node[75] visitedPerTimestep ETV
vector 110 TaxiNetwork.node[64] visitedPerTimestep ETV
vector 111 TaxiNetwork.node[77] visitedPerTimestep ETV
vector 112 TaxiNetwork.node[76] visitedPerTimestep ETV
vector 113 TaxiNetwork.node[71] visitedPerTimestep ETV
vector 114 TaxiNetwork.node[95] visitedPerTimestep ETV
vector 115 TaxiNetwork.node[143] visitedPerTimestep ETV
vector 116 TaxiNetwork.node[97] visitedPerTimestep ETV
vector 117 TaxiNetwork.node[10] visitedPerTimestep ETV
vector 118 TaxiNetwork.node[58] visitedPerTimestep ETV
vector 119 TaxiNetwork.node[108] visitedPerTimestep ETV
vector 120 TaxiNetwork.node[43] visitedPerTimestep ETV
vector 121 TaxiNetwork.node[42] visitedPerTimestep ETV
vector 122 TaxiNetwork.node[41] visitedPerTimestep ETV
vector 123 TaxiNetwork.node[109] visitedPerTimestep ETV
vector 124 TaxiNetwork.node[127] visitedPerTimestep ETV
vector 125 TaxiNetwork.node[72] visitedPerTimestep ETV
vector 126 TaxiNetwork.node[124] visitedPerTimestep ETV
vector 127 TaxiNetwork.node[59] visitedPerTimestep ETV
vector 128 TaxiNetwork.node[144] visitedPerTimestep ETV
vector 129 TaxiNetwork.node[136] visitedPerTimestep ETV
vector 130 TaxiNetwork.node[51] visitedPerTimestep ETV
vector 131 TaxiNetwork.node[48] visitedPerTimestep ETV
vector 132 TaxiNetwork.node[135] visitedPerTimestep ETV
vector 133 TaxiNetwork.node[50] visitedPerTimestep ETV
vector 134 TaxiNetwork.node[47] visitedPerTimestep ETV
vector 135 TaxiNetwork.node[49] visitedPerTimestep ETV
vector 136 TaxiNetwork.node[98] visitedPerTimestep ETV
vector 137 TaxiNetwork.node[96] visitedPerTimestep ETV
vector 138 TaxiNetwork.node[28] visitedPerTimestep ETV
0	1	0	1
0	55	0	43
0	125	0	70
0	169	0	77
0	191	0	80
0	216	0	84
0	381	0	100
0	503	0	116
0	543	0	117
0	645	0	118
0	674	0	118
0	695	0	118
0	817	0	119
0	876	0	124
0	1202	0	131
0	1256	0	131
0	1560	0	141
0	1630	0	141
0	1634	0	141
0	1732	0	141
0	1828	0	141
0	1960	0	141
0	2498	0	142
0	2542	0	142
0	2668	0	142
0	3280	0	142
0	3332	0	142
1	2	0	2
1	62	0	45
1	77	0	51
1	354	0	100
1	418	0	103
1	432	0	103
1	501	0	116
1	584	0	118
1	707	0	118
1	709	0	118
1	745	0	119
1	776	0	119
1	820	0	119
1	982	0	127
1	1136	0	131
1	1248	0	131
1	1380	0	133
1	1516	0	141
1	2070	0	141
1	2354	0	142
1	2442	0	142
1	2514	0	142
1	2558	0	142
1	2612	0	142
1	3268	0	142
1	3308	0	142
2	3	0	3
2	23	0	21
2	79	0	52
2	116	0	69
2	188	0	79
2	199	0	81
2	368	0	100
2	502	0	116
2	542	0	117
2	588	0	118
2	620	0	118
2	634	0	118
2	641	0	118
2	672	0	118
2	701	0	118
2	774	0	119
2	801	0	119
2	950	0	124
2	1012	0	127
2	1030	0	127
2	1106	0	131
2	1156	0	131
2	1196	0	131
2	1272	0	131
2	1850	0	141
2	1876	0	141
2	2060	0	141
2	2380	0	142
2	2472	0	142
2	2618	0	142
2	2704	0	142
2	3072	0	142
2	3412	0	142
2	3420	0	142
2	3472	0	142
2	3496	0	142
3	4	0	4
3	53	0	43
3	99	0	64
3	119	0	70
3	122	0	70
3	139	0	74
3	159	0	76
3	250	0	88
3	310	0	98
3	369	0	100
3	384	0	100
3	524	0	116
3	526	0	116
3	616	0	118
3	628	0	118
3	643	0	118
3	655	0	118
3	742	0	119
3	892	0	124
3	1326	0	132
3	1796	0	141
3	1904	0	141
3	2052	0	141
3	2538	0	142
3	2590	0	142
3	2976	0	142
4	5	0	5
4	258	0	88
4	338	0	99
4	421	0	103
4	481	0	116
4	573	0	118
4	717	0	118
4	720	0	118
4	722	0	118
4	746	0	119
4	790	0	119
4	806	0	119
4	822	0	119
4	874	0	124
4	889	0	124
4	1014	0	127
4	1254	0	131
4	1262	0	131
4	1570	0	141
4	1748	0	141
4	1852	0	141
4	2092	0	141
4	2568	0	142
4	3188	0	142
4	3512	0	144
5	6	0	6
5	14	0	13
5	106	0	65
5	282	0	90
5	325	0	98
5	422	0	103
5	504	0	116
5	507	0	116
5	548	0	117
5	646	0	118
5	854	0	124
5	1052	0	127
5	1062	0	127
5	1212	0	131
5	1500	0	141
5	1750	0	141
5	1832	0	141
5	2068	0	141
5	2274	0	142
5	2552	0	142
5	2582	0	142
5	2606	0	142
5	2624	0	142
5	2630	0	142
5	3152	0	142
5	3212	0	142
6	7	0	7
6	54	0	43
6	57	0	43
6	59	0	44
6	63	0	45
6	204	0	82
6	809	0	119
6	819	0	119
6	858	0	124
6	890	0	124
6	928	0	124
6	1074	0	129
6	1400	0	133
6	1788	0	141
6	2034	0	141
6	2084	0	141
6	2382	0	142
6	2492	0	142
6	2562	0	142
6	2586	0	142
6	2928	0	142
7	8	0	8
7	105	0	65
7	128	0	71
7	133	0	73
7	176	0	77
7	333	0	99
7	614	0	118
7	681	0	118
7	714	0	118
7	786	0	119
7	851	0	124
7	853	0	124
7	903	0	124
7	933	0	124
7	986	0	127
7	1020	0	127
7	1174	0	131
7	1178	0	131
7	1386	0	133
7	1940	0	141
7	2228	0	142
7	2280	0	142
7	2638	0	142
7	2958	0	142
7	3092	0	142
7	3272	0	142
8	9	0	9
8	40	0	36
8	243	0	88
8	508	0	116
8	519	0	116
8	651	0	118
8	671	0	118
8	775	0	119
8	780	0	119
8	875	0	124
8	930	0	124
8	1198	0	131
8	1244	0	131
8	1258	0	131
8	1268	0	131
8	2026	0	141
8	2040	0	141
8	2344	0	142
8	2524	0	142
8	2718	0	142
8	2726	0	142
8	2738	0	142
8	2744	0	142
9	10	0	10
9	69	0	48
9	145	0	74
9	352	0	100
9	373	0	100
9	388	0	100
9	477	0	116
9	538	0	117
9	582	0	118
9	632	0	118
9	673	0	118
9	762	0	119
9	863	0	124
9	868	0	124
9	944	0	124
9	1008	0	127
9	1142	0	131
9	1158	0	131
9	1168	0	131
9	1234	0	131
9	1878	0	141
9	1966	0	141
9	2286	0	142
9	2294	0	142
9	2356	0	142
9	2646	0	142
9	2716	0	142
9	2972	0	142
9	3112	0	142
9	3228	0	142
9	3440	0	142
10	11	0	11
10	206	0	82
10	288	0	90
10	304	0	98
10	312	0	98
10	337	0	99
10	480	0	116
10	513	0	116
10	566	0	117
10	706	0	118
10	744	0	119
10	792	0	119
10	980	0	127
10	1038	0	127
10	1474	0	141
10	1496	0	141
10	1596	0	141
10	1622	0	141
10	1646	0	141
10	1728	0	141
10	2080	0	141
10	2266	0	142
10	2288	0	142
10	2488	0	142
10	2522	0	142
10	2748	0	142
10	2870	0	142
10	2920	0	142
10	2992	0	142
11	12	0	12
11	164	0	76
11	187	0	79
11	545	0	117
11	824	0	119
11	914	0	124
11	1154	0	131
11	1230	0	131
11	1236	0	131
11	1472	0	141
11	1482	0	141
11	1880	0	141
11	2054	0	141
11	2230	0	142
11	2486	0	142
11	2712	0	142
11	3016	0	142
11	3476	0	142
12	13	0	13
12	172	0	77
12	231	0	88
12	240	0	88
12	305	0	98
12	485	0	116
12	488	0	116
12	490	0	116
12	494	0	116
12	586	0	118
12	752	0	119
12	782	0	119
12	1176	0	131
12	1922	0	141
12	2024	0	141
12	2050	0	141
12	2384	0	142
12	2392	0	142
12	2440	0	142
12	2614	0	142
12	2956	0	142
12	3408	0	142
12	3468	0	142
12	3516	0	145
13	15	0	14
13	146	0	74
13	166	0	76
13	173	0	77
13	212	0	83
13	315	0	98
13	424	0	103
13	530	0	116
13	563	0	117
13	574	0	118
13	600	0	118
13	657	0	118
13	723	0	118
13	783	0	119
13	866	0	124
13	900	0	124
13	926	0	124
13	996	0	127
13	1056	0	127
13	1128	0	131
13	1138	0	131
13	1214	0	131
13	1486	0	141
13	1910	0	141
13	2292	0	142
13	2436	0	142
13	2510	0	142
13	2534	0	142
13	2622	0	142
13	2734	0	142
13	2934	0	142
13	3024	0	142
13	3192	0	142
13	3336	0	142
13	3504	0	142
14	16	0	15
14	66	0	47
14	142	0	74
14	419	0	103
14	498	0	116
14	514	0	116
14	587	0	118
14	856	0	124
14	948	0	124
14	1010	0	127
14	1246	0	131
14	1514	0	141
14	1814	0	141
14	1826	0	141
14	1938	0	141
14	2010	0	141
14	2014	0	141
14	2332	0	142
14	2348	0	142
14	2362	0	142
14	2952	0	142
14	3156	0	142
15	17	0	16
15	56	0	43
15	131	0	72
15	203	0	82
15	211	0	83
15	256	0	88
15	307	0	98
15	370	0	100
15	403	0	102
15	631	0	118
15	917	0	124
15	1364	0	132
15	1408	0	133
15	1872	0	141
15	1958	0	141
15	2298	0	142
15	2330	0	142
15	2334	0	142
15	2528	0	142
15	3320	0	142
16	18	0	17
16	50	0	41
16	100	0	64
16	152	0	75
16	549	0	117
16	567	0	117
16	642	0	118
16	705	0	118
16	708	0	118
16	731	0	118
16	777	0	119
16	988	0	127
16	1024	0	127
16	1110	0	131
16	1208	0	131
16	1270	0	131
16	1310	0	131
16	1398	0	133
16	1554	0	141
16	1626	0	141
16	2072	0	141
16	2242	0	142
16	2282	0	142
16	2512	0	142
16	2554	0	142
16	2620	0	142
17	19	0	18
17	143	0	74
17	175	0	77
17	186	0	79
17	208	0	83
17	249	0	88
17	309	0	98
17	321	0	98
17	523	0	116
17	537	0	117
17	608	0	118
17	684	0	118
17	687	0	118
17	692	0	118
17	729	0	118
17	859	0	124
17	1050	0	127
17	1076	0	129
17	1134	0	131
17	1152	0	131
17	1204	0	131
17	1842	0	141
17	2326	0	142
17	2338	0	142
17	2360	0	142
17	2444	0	142
17	2476	0	142
17	2640	0	142
17	2722	0	142
17	2728	0	142
17	2888	0	142
17	3012	0	142
17	3040	0	142
18	20	0	19
18	124	0	70
18	170	0	77
18	260	0	88
18	670	0	118
18	725	0	118
18	735	0	118
18	763	0	119
18	848	0	124
18	901	0	124
18	990	0	127
18	1004	0	127
18	1022	0	127
18	1072	0	129
18	1502	0	141
18	1944	0	141
18	2016	0	141
18	2032	0	141
18	2088	0	141
18	2214	0	142
18	2224	0	142
18	2238	0	142
18	2324	0	142
18	2504	0	142
18	2706	0	142
18	2926	0	142
18	2990	0	142
18	3080	0	142
18	3184	0	142
19	21	0	20
19	81	0	53
19	114	0	69
19	284	0	90
19	474	0	116
19	478	0	116
19	639	0	118
19	736	0	118
19	821	0	119
19	882	0	124
19	915	0	124
19	931	0	124
19	1042	0	127
19	1260	0	131
19	1314	0	131
19	1328	0	132
19	1332	0	132
19	1756	0	141
19	2056	0	141
19	2062	0	141
19	2284	0	142
19	2366	0	142
19	2556	0	142
19	2570	0	142
19	2574	0	142
19	3036	0	142
19	3428	0	142
20	22	0	21
20	35	0	32
20	44	0	38
20	67	0	47
20	120	0	70
20	140	0	74
20	158	0	76
20	342	0	99
20	499	0	116
20	612	0	118
20	886	0	124
20	947	0	124
20	1032	0	127
20	1304	0	131
20	1324	0	132
20	1954	0	141
20	2064	0	141
20	3244	0	142
21	24	0	22
21	112	0	68
21	458	0	111
21	800	0	119
21	956	0	125
21	958	0	126
21	971	0	126
21	1186	0	131
21	1614	0	141
21	1664	0	141
21	1702	0	141
21	2000	0	141
21	2102	0	141
21	2138	0	142
21	2180	0	142
21	2810	0	142
21	2852	0	142
22	25	0	23
22	963	0	126
22	1286	0	131
22	1342	0	132
22	1346	0	132
22	1524	0	141
22	1538	0	141
22	1618	0	141
22	1928	0	141
22	2104	0	141
22	2158	0	142
22	2172	0	142
22	2462	0	142
22	2820	0	142
22	3360	0	142
22	3372	0	142
23	26	0	24
23	111	0	68
23	298	0	94
23	447	0	110
23	468	0	115
23	951	0	124
23	953	0	125
23	965	0	126
23	1296	0	131
23	1610	0	141
23	1620	0	141
23	2116	0	141
23	2994	0	142
23	3000	0	142
24	27	0	25
24	291	0	91
24	470	0	115
24	590	0	118
24	768	0	119
24	1298	0	131
24	1710	0	141
24	2470	0	142
24	2752	0	142
24	2794	0	142
24	3368	0	142
25	28	0	26
25	294	0	93
25	296	0	94
25	592	0	118
25	799	0	119
25	954	0	125
25	970	0	126
25	1276	0	131
25	1606	0	141
25	1932	0	141
25	2170	0	142
25	2176	0	142
25	2792	0	142
25	3356	0	142
26	29	0	27
26	769	0	119
26	960	0	126
26	966	0	126
26	1336	0	132
26	1602	0	141
26	1658	0	141
26	1688	0	141
26	1722	0	141
26	2098	0	141
26	2118	0	141
26	2458	0	142
26	2802	0	142
26	2826	0	142
26	2836	0	142
26	2856	0	142
26	2862	0	142
27	30	0	28
27	797	0	119
27	975	0	127
27	1648	0	141
27	1678	0	141
27	1696	0	141
27	2168	0	142
27	2184	0	142
27	2812	0	142
27	2828	0	142
28	31	0	29
28	772	0	119
28	1040	0	127
28	1698	0	141
28	2142	0	142
28	2572	0	142
28	2996	0	142
29	32	0	30
29	43	0	38
29	197	0	81
29	737	0	118
29	767	0	119
29	770	0	119
29	773	0	119
29	1302	0	131
29	1318	0	131
29	1600	0	141
29	1726	0	141
29	1838	0	141
29	2004	0	141
29	2146	0	142
29	2154	0	142
29	2774	0	142
29	2790	0	142
29	2868	0	142
29	2964	0	142
29	3068	0	142
30	33	0	31
30	72	0	49
30	193	0	80
30	285	0	90
30	336	0	99
30	349	0	100
30	362	0	100
30	577	0	118
30	1598	0	141
30	1968	0	141
30	2256	0	142
30	2592	0	142
31	34	0	32
31	45	0	38
31	363	0	100
31	367	0	100
31	793	0	119
31	878	0	124
31	1036	0	127
31	1320	0	131
31	1972	0	141
31	2058	0	141
31	2260	0	142
31	3056	0	142
32	36	0	33
32	348	0	100
32	365	0	100
32	740	0	119
32	879	0	124
32	1034	0	127
32	1372	0	133
32	1952	0	141
33	37	0	34
33	1306	0	131
33	1902	0	141
33	1970	0	141
33	2008	0	141
33	3052	0	142
34	38	0	35
34	147	0	74
34	150	0	75
34	174	0	77
34	183	0	79
34	209	0	83
34	244	0	88
34	320	0	98
34	339	0	99
34	344	0	99
34	417	0	103
34	529	0	116
34	544	0	117
34	565	0	117
34	656	0	118
34	680	0	118
34	688	0	118
34	1130	0	131
34	1376	0	133
34	1476	0	141
34	1792	0	141
34	1874	0	141
34	2078	0	141
34	2210	0	142
34	2246	0	142
34	2480	0	142
34	2878	0	142
34	2974	0	142
35	39	0	36
35	415	0	103
35	585	0	118
35	599	0	118
35	675	0	118
35	689	0	118
35	693	0	118
35	721	0	118
35	810	0	119
35	983	0	127
35	1242	0	131
35	2094	0	141
35	2190	0	142
35	2216	0	142
35	2340	0	142
35	2364	0	142
35	2370	0	142
35	2376	0	142
35	2520	0	142
35	2628	0	142
35	2746	0	142
35	2886	0	142
35	2984	0	142
35	3032	0	142
36	41	0	37
36	61	0	45
36	102	0	64
36	104	0	65
36	123	0	70
36	264	0	89
36	270	0	89
36	306	0	98
36	327	0	98
36	493	0	116
36	605	0	118
36	647	0	118
36	690	0	118
36	732	0	118
36	778	0	119
36	784	0	119
36	789	0	119
36	814	0	119
36	869	0	124
36	1250	0	131
36	1576	0	141
36	2038	0	141
36	2194	0	142
36	2232	0	142
36	2434	0	142
36	2580	0	142
36	2732	0	142
36	2908	0	142
36	2954	0	142
37	42	0	38
37	157	0	76
37	192	0	80
37	232	0	88
37	241	0	88
37	247	0	88
37	476	0	116
37	615	0	118
37	636	0	118
37	654	0	118
37	702	0	118
37	795	0	119
37	818	0	119
37	827	0	119
37	830	0	119
37	929	0	124
37	1026	0	127
37	1226	0	131
37	1330	0	132
37	1568	0	141
37	1638	0	141
37	1840	0	141
37	1912	0	141
37	1920	0	141
37	1936	0	141
37	1982	0	141
37	2236	0	142
37	2378	0	142
37	2714	0	142
37	2962	0	142
38	46	0	39
38	121	0	70
38	340	0	99
38	343	0	99
38	364	0	100
38	880	0	124
38	2252	0	142
38	3252	0	142
39	47	0	40
39	49	0	41
39	161	0	76
39	196	0	81
39	200	0	81
39	272	0	89
39	278	0	89
39	335	0	99
39	877	0	124
39	1308	0	131
39	1550	0	141
39	1836	0	141
39	1950	0	141
39	2148	0	142
39	2250	0	142
39	2254	0	142
39	3448	0	142
40	48	0	41
40	117	0	69
40	151	0	75
40	153	0	75
40	273	0	89
40	313	0	98
40	366	0	100
40	380	0	100
40	580	0	118
40	739	0	119
40	741	0	119
40	855	0	124
40	883	0	124
40	885	0	124
40	1118	0	131
40	1624	0	141
40	1644	0	141
40	1758	0	141
40	1848	0	141
40	2596	0	142
40	2666	0	142
40	3240	0	142
41	51	0	42
41	75	0	51
41	217	0	84
41	230	0	88
41	265	0	89
41	374	0	100
41	376	0	100
41	378	0	100
41	386	0	100
41	610	0	118
41	812	0	119
41	823	0	119
41	1238	0	131
41	1544	0	141
41	1564	0	141
41	1764	0	141
41	1790	0	141
41	1830	0	141
41	1908	0	141
41	2022	0	141
41	2268	0	142
41	2388	0	142
41	2500	0	142
41	2702	0	142
41	2982	0	142
41	2986	0	142
41	3172	0	142
41	3340	0	142
41	3436	0	142
41	3488	0	142
42	52	0	43
42	165	0	76
42	205	0	82
42	276	0	89
42	334	0	99
42	423	0	103
42	483	0	116
42	500	0	116
42	613	0	118
42	747	0	119
42	751	0	119
42	816	0	119
42	945	0	124
42	1028	0	127
42	1210	0	131
42	1512	0	141
42	1572	0	141
42	2048	0	141
42	2066	0	141
42	2346	0	142
42	2508	0	142
42	2588	0	142
42	2876	0	142
42	2966	0	142
42	3076	0	142
42	3104	0	142
42	3144	0	142
43	58	0	44
43	141	0	74
43	155	0	76
43	163	0	76
43	201	0	81
43	274	0	89
43	324	0	98
43	506	0	116
43	677	0	118
43	1124	0	131
43	1228	0	131
43	1406	0	133
43	1562	0	141
43	1730	0	141
43	1760	0	141
43	2594	0	142
43	2970	0	142
43	3432	0	142
44	60	0	45
44	76	0	51
44	101	0	64
44	182	0	79
44	215	0	84
44	407	0	102
44	516	0	116
44	539	0	117
44	623	0	118
44	696	0	118
44	703	0	118
44	728	0	118
44	757	0	119
44	860	0	124
44	909	0	124
44	1100	0	131
44	1170	0	131
44	1224	0	131
44	1382	0	133
44	1396	0	133
44	1404	0	133
44	1484	0	141
44	1510	0	141
44	1566	0	141
44	1768	0	141
44	1810	0	141
44	1816	0	141
44	2532	0	142
44	2652	0	142
44	2950	0	142
44	3120	0	142
44	3312	0	142
44	3328	0	142
45	64	0	46
45	107	0	65
45	252	0	88
45	473	0	116
45	512	0	116
45	648	0	118
45	857	0	124
45	1058	0	127
45	1180	0	131
45	1216	0	131
45	1478	0	141
45	1628	0	141
45	1746	0	141
45	1800	0	141
45	1812	0	141
45	2074	0	141
45	2086	0	141
45	2390	0	142
45	2484	0	142
45	2616	0	142
45	3004	0	142
45	3464	0	142
46	65	0	47
46	71	0	49
46	416	0	103
46	433	0	103
46	527	0	116
46	602	0	118
46	619	0	118
46	1882	0	141
46	1962	0	141
46	2350	0	142
46	2374	0	142
46	2536	0	142
46	2644	0	142
46	3160	0	142
47	68	0	48
47	162	0	76
47	279	0	89
47	350	0	100
47	581	0	118
47	881	0	124
47	887	0	124
47	1046	0	127
47	1120	0	131
47	1370	0	133
47	1548	0	141
47	1594	0	141
47	1636	0	141
47	1640	0	141
47	2208	0	142
47	2494	0	142
47	2540	0	142
47	2550	0	142
47	2598	0	142
47	2918	0	142
47	3048	0	142
47	3492	0	142
48	70	0	49
48	134	0	73
48	144	0	74
48	238	0	88
48	246	0	88
48	359	0	100
48	414	0	103
48	518	0	116
48	652	0	118
48	669	0	118
48	718	0	118
48	734	0	118
48	750	0	119
48	804	0	119
48	815	0	119
48	898	0	124
48	913	0	124
48	1002	0	127
48	1006	0	127
48	1388	0	133
48	1490	0	141
48	2046	0	141
48	2396	0	142
48	2482	0	142
48	2506	0	142
49	73	0	50
49	138	0	74
49	194	0	80
49	277	0	89
49	283	0	90
49	287	0	90
49	383	0	100
49	627	0	118
49	872	0	124
49	946	0	124
49	1122	0	131
49	1374	0	133
49	1754	0	141
49	2006	0	141
49	2150	0	142
49	2258	0	142
49	2264	0	142
49	2600	0	142
49	3248	0	142
49	3260	0	142
49	3424	0	142
50	74	0	51
50	115	0	69
50	137	0	74
50	271	0	89
50	311	0	98
50	622	0	118
50	716	0	118
50	1108	0	131
50	1844	0	141
50	2368	0	142
50	2526	0	142
50	2548	0	142
50	2916	0	142
50	3164	0	142
50	3484	0	142
51	78	0	52
51	251	0	88
51	254	0	88
51	267	0	89
51	492	0	116
51	525	0	116
51	528	0	116
51	561	0	117
51	629	0	118
51	831	0	119
51	847	0	124
51	849	0	124
51	867	0	124
51	893	0	124
51	1312	0	131
51	1918	0	141
51	2030	0	141
51	2234	0	142
51	2278	0	142
51	2902	0	142
51	3304	0	142
51	3460	0	142
52	80	0	53
52	135	0	73
52	148	0	74
52	184	0	79
52	218	0	84
52	233	0	88
52	351	0	100
52	358	0	100
52	644	0	118
52	781	0	119
52	1048	0	127
52	1054	0	127
52	1232	0	131
52	1240	0	131
52	1546	0	141
52	1556	0	141
52	1752	0	141
52	1980	0	141
52	3140	0	142
52	3264	0	142
52	3480	0	142
53	82	0	54
53	129	0	71
53	177	0	77
53	190	0	80
53	248	0	88
53	269	0	89
53	275	0	89
53	377	0	100
53	379	0	100
53	475	0	116
53	560	0	117
53	583	0	118
53	617	0	118
53	700	0	118
53	724	0	118
53	756	0	119
53	808	0	119
53	987	0	127
53	1116	0	131
53	1498	0	141
53	1574	0	141
53	1580	0	141
53	1846	0	141
53	2028	0	141
53	2036	0	141
53	2446	0	142
53	2636	0	142
53	2664	0	142
53	2708	0	142
53	2884	0	142
53	2980	0	142
53	3148	0	142
53	3452	0	142
54	83	0	55
54	98	0	64
54	167	0	76
54	262	0	89
54	317	0	98
54	360	0	100
54	517	0	116
54	534	0	117
54	546	0	117
54	570	0	117
54	625	0	118
54	749	0	119
54	755	0	119
54	803	0	119
54	852	0	124
54	864	0	124
54	905	0	124
54	940	0	124
54	1016	0	127
54	1098	0	131
54	1132	0	131
54	1140	0	131
54	1266	0	131
54	1358	0	132
54	1362	0	132
54	1734	0	141
54	1738	0	141
54	1888	0	141
54	2226	0	142
54	2358	0	142
54	2650	0	142
54	2736	0	142
54	2948	0	142
55	84	0	56
55	219	0	84
55	375	0	100
55	398	0	101
55	607	0	118
55	630	0	118
55	662	0	118
55	710	0	118
55	805	0	119
55	924	0	124
55	995	0	127
55	1000	0	127
55	1822	0	141
55	1978	0	141
55	2076	0	141
55	2192	0	142
55	2244	0	142
55	2296	0	142
55	2700	0	142
55	2890	0	142
55	2910	0	142
55	2930	0	142
55	3084	0	142
55	3116	0	142
55	3456	0	142
56	85	0	57
56	220	0	84
56	222	0	85
56	228	0	88
56	235	0	88
56	356	0	100
56	661	0	118
56	906	0	124
56	1090	0	131
56	1818	0	141
56	2400	0	142
56	2424	0	142
56	2654	0	142
57	86	0	58
57	127	0	71
57	346	0	100
57	371	0	100
57	389	0	100
57	497	0	116
57	568	0	117
57	697	0	118
57	711	0	118
57	760	0	119
57	785	0	119
57	788	0	119
57	904	0	124
57	1392	0	133
57	1458	0	141
57	1470	0	141
57	1894	0	141
57	2310	0	142
57	2632	0	142
57	3296	0	142
58	87	0	59
58	91	0	62
58	95	0	63
58	552	0	117
58	1354	0	132
58	1360	0	132
58	1390	0	133
58	1870	0	141
58	2426	0	142
58	2660	0	142
58	2674	0	142
58	2684	0	142
59	88	0	60
59	93	0	63
59	236	0	88
59	331	0	99
59	401	0	102
59	556	0	117
59	2412	0	142
59	2416	0	142
59	2656	0	142
60	89	0	61
60	96	0	63
60	391	0	100
60	396	0	101
60	558	0	117
60	663	0	118
60	921	0	124
60	1086	0	131
60	1146	0	131
60	1780	0	141
60	1866	0	141
60	2318	0	142
60	2672	0	142
61	90	0	62
61	400	0	102
61	405	0	102
61	408	0	102
61	411	0	103
61	664	0	118
61	668	0	118
61	758	0	119
61	2398	0	142
61	2658	0	142
61	2694	0	142
61	2940	0	142
61	3132	0	142
62	92	0	63
62	94	0	63
62	224	0	86
62	227	0	88
62	553	0	117
62	557	0	117
62	911	0	124
62	2430	0	142
62	2682	0	142
63	97	0	64
63	181	0	79
63	237	0	88
63	332	0	99
63	395	0	101
63	659	0	118
63	754	0	119
63	908	0	124
63	936	0	124
63	1084	0	131
63	1172	0	131
63	1772	0	141
63	1858	0	141
63	2314	0	142
63	2686	0	142
63	2892	0	142
63	2946	0	142
63	3128	0	142
64	103	0	65
64	308	0	98
64	316	0	98
64	322	0	98
64	326	0	98
64	372	0	100
64	520	0	116
64	550	0	117
64	633	0	118
64	685	0	118
64	791	0	119
64	916	0	124
64	923	0	124
64	991	0	127
64	1166	0	131
64	1352	0	132
64	1766	0	141
64	2082	0	141
64	2544	0	142
64	2642	0	142
64	2648	0	142
64	3108	0	142
64	3292	0	142
65	108	0	66
65	171	0	77
65	303	0	98
65	430	0	103
65	541	0	117
65	595	0	118
65	638	0	118
65	730	0	118
65	779	0	119
65	894	0	124
65	1070	0	128
65	1194	0	131
65	1350	0	132
65	1520	0	141
65	1744	0	141
65	1916	0	141
65	2516	0	142
65	2740	0	142
65	3180	0	142
66	109	0	67
66	425	0	103
66	486	0	116
66	594	0	118
66	609	0	118
66	621	0	118
66	635	0	118
66	825	0	119
66	828	0	119
66	1504	0	141
66	1542	0	141
66	1586	0	141
66	1682	0	141
66	2450	0	142
66	2576	0	142
66	2610	0	142
66	2814	0	142
66	3008	0	142
66	3176	0	142
66	3348	0	142
67	110	0	68
67	198	0	81
67	289	0	90
67	426	0	103
67	449	0	110
67	979	0	127
67	1704	0	141
67	1720	0	141
67	2778	0	142
67	2788	0	142
67	2998	0	142
67	3392	0	142
68	113	0	69
68	448	0	110
68	479	0	116
68	593	0	118
68	796	0	119
68	955	0	125
68	1316	0	131
68	1540	0	141
68	1666	0	141
68	1680	0	141
68	1718	0	141
68	1984	0	141
68	1988	0	141
68	2112	0	141
68	2156	0	142
68	2750	0	142
68	3352	0	142
68	3384	0	142
69	118	0	70
69	160	0	76
69	239	0	88
69	245	0	88
69	420	0	103
69	482	0	116
69	484	0	116
69	521	0	116
69	547	0	117
69	626	0	118
69	686	0	118
69	694	0	118
69	761	0	119
69	861	0	124
69	896	0	124
69	941	0	124
69	984	0	127
69	1494	0	141
69	1508	0	141
69	1578	0	141
69	1588	0	141
69	1740	0	141
69	2202	0	142
69	2240	0	142
69	2290	0	142
69	2602	0	142
69	2730	0	142
69	2988	0	142
69	3088	0	142
69	3204	0	142
69	3216	0	142
69	3444	0	142
70	126	0	71
70	576	0	118
70	578	0	118
70	794	0	119
70	862	0	124
70	1582	0	141
70	1590	0	141
70	1834	0	141
70	1906	0	141
70	1956	0	141
70	1974	0	141
70	2204	0	142
70	2968	0	142
70	3324	0	142
71	130	0	72
71	649	0	118
71	699	0	118
71	919	0	124
71	1220	0	131
71	1856	0	141
71	1898	0	141
71	2020	0	141
71	2044	0	141
71	2196	0	142
71	2272	0	142
71	2352	0	142
71	2560	0	142
71	2720	0	142
71	2874	0	142
71	2896	0	142
71	3100	0	142
72	132	0	73
72	266	0	89
72	323	0	98
72	385	0	100
72	487	0	116
72	515	0	116
72	564	0	117
72	572	0	118
72	640	0	118
72	682	0	118
72	733	0	118
72	748	0	119
72	891	0	124
72	1584	0	141
72	2478	0	142
72	2724	0	142
72	2880	0	142
72	3300	0	142
72	3500	0	142
73	136	0	74
73	156	0	76
73	185	0	79
73	242	0	88
73	255	0	88
73	318	0	98
73	496	0	116
73	650	0	118
73	678	0	118
73	704	0	118
73	715	0	118
73	787	0	119
73	943	0	124
73	1492	0	141
73	1824	0	141
73	1976	0	141
73	2222	0	142
73	2270	0	142
73	2634	0	142
73	2872	0	142
73	3096	0	142
73	3256	0	142
73	3284	0	142
74	149	0	75
74	257	0	88
74	263	0	89
74	491	0	116
74	713	0	118
74	802	0	119
74	895	0	124
74	897	0	124
74	981	0	127
74	1384	0	133
74	1558	0	141
74	2662	0	142
74	2978	0	142
74	3508	0	143
75	154	0	76
75	328	0	98
75	505	0	116
75	540	0	117
75	575	0	118
75	611	0	118
75	698	0	118
75	712	0	118
75	871	0	124
75	1044	0	127
75	1064	0	127
75	1068	0	127
75	1126	0	131
75	1592	0	141
75	1798	0	141
75	1896	0	141
75	1900	0	141
75	2042	0	141
75	3168	0	142
75	3236	0	142
76	168	0	77
76	178	0	77
76	253	0	88
76	353	0	100
76	355	0	100
76	606	0	118
76	997	0	127
76	1144	0	131
76	1942	0	141
76	2404	0	142
76	2530	0	142
76	2564	0	142
76	2670	0	142
76	2692	0	142
76	3220	0	142
76	3276	0	142
77	179	0	78
77	213	0	83
77	357	0	100
77	402	0	102
77	569	0	117
77	658	0	118
77	899	0	124
77	937	0	124
77	1778	0	141
77	1786	0	141
77	1804	0	141
77	1808	0	141
77	1862	0	141
77	2312	0	142
77	2410	0	142
77	2432	0	142
77	2688	0	142
77	2898	0	142
77	3196	0	142
78	180	0	79
78	234	0	88
78	390	0	100
78	394	0	101
78	397	0	101
78	412	0	103
78	535	0	117
78	551	0	117
78	604	0	118
78	666	0	118
78	727	0	118
78	1394	0	133
78	1868	0	141
78	1892	0	141
78	2932	0	142
78	2936	0	142
78	3124	0	142
78	3316	0	142
79	189	0	80
79	259	0	88
79	495	0	116
79	618	0	118
79	811	0	119
79	850	0	124
79	1104	0	131
79	1200	0	131
79	1506	0	141
79	1854	0	141
79	1884	0	141
79	2546	0	142
79	2626	0	142
79	2742	0	142
79	3208	0	142
79	3416	0	142
80	195	0	81
80	286	0	90
80	341	0	99
80	679	0	118
81	202	0	82
81	210	0	83
81	347	0	100
81	579	0	118
81	1456	0	141
81	2206	0	142
81	2308	0	142
82	207	0	83
82	314	0	98
82	387	0	100
82	489	0	116
82	522	0	116
82	653	0	118
82	676	0	118
82	691	0	118
82	888	0	124
82	1102	0	131
82	1112	0	131
82	1164	0	131
82	1552	0	141
82	2012	0	141
82	2248	0	142
82	2342	0	142
82	2386	0	142
82	2474	0	142
82	2496	0	142
82	2518	0	142
82	3232	0	142
82	3344	0	142
83	214	0	84
83	229	0	88
83	268	0	89
83	281	0	90
83	603	0	118
83	683	0	118
83	902	0	124
83	999	0	127
83	1066	0	127
83	1160	0	131
83	1890	0	141
83	2018	0	141
83	2218	0	142
83	2276	0	142
83	2322	0	142
83	2328	0	142
83	2422	0	142
83	2502	0	142
83	2604	0	142
83	2696	0	142
83	2882	0	142
83	2900	0	142
83	2914	0	142
83	2938	0	142
84	221	0	85
84	554	0	117
84	993	0	127
84	1774	0	141
84	2678	0	142
85	223	0	86
85	410	0	103
85	1784	0	141
85	2680	0	142
85	2942	0	142
86	225	0	87
86	392	0	100
86	406	0	102
86	509	0	116
86	559	0	117
86	562	0	117
86	624	0	118
86	665	0	118
86	920	0	124
86	927	0	124
86	934	0	124
86	998	0	127
86	1078	0	130
86	1252	0	131
86	1264	0	131
86	1480	0	141
86	1946	0	141
86	2198	0	142
86	2402	0	142
86	2408	0	142
86	2710	0	142
86	3020	0	142
87	226	0	88
87	330	0	99
87	404	0	102
87	660	0	118
87	1082	0	131
87	1468	0	141
87	1820	0	141
87	1864	0	141
87	2428	0	142
87	2894	0	142
87	2912	0	142
88	261	0	89
88	413	0	103
88	531	0	116
88	533	0	117
88	726	0	118
88	832	0	119
88	846	0	124
88	1356	0	132
88	1488	0	141
88	1736	0	141
89	280	0	90
89	319	0	98
89	361	0	100
89	382	0	100
89	431	0	103
89	743	0	119
89	873	0	124
89	918	0	124
89	932	0	124
89	1218	0	131
89	1222	0	131
89	1378	0	133
89	1948	0	141
89	2212	0	142
89	2336	0	142
89	2394	0	142
89	2960	0	142
89	3028	0	142
89	3044	0	142
89	3224	0	142
89	3288	0	142
90	290	0	91
90	451	0	110
90	467	0	115
90	771	0	119
90	798	0	119
90	972	0	126
90	1294	0	131
90	1676	0	141
90	2768	0	142
90	2772	0	142
90	2776	0	142
90	3388	0	142
91	292	0	92
91	297	0	94
91	469	0	115
91	974	0	127
91	1292	0	131
91	1300	0	131
91	1334	0	132
91	1338	0	132
91	1616	0	141
91	1694	0	141
91	1990	0	141
91	2002	0	141
91	2178	0	142
92	293	0	93
92	427	0	103
92	446	0	110
92	450	0	110
92	452	0	110
92	591	0	118
92	1532	0	141
92	1674	0	141
92	1716	0	141
92	2144	0	142
92	2164	0	142
92	2174	0	142
92	2460	0	142
92	2760	0	142
92	2834	0	142
92	2842	0	142
93	295	0	94
93	428	0	103
93	589	0	118
93	766	0	119
93	829	0	119
93	1274	0	131
93	1608	0	141
93	1724	0	141
93	1934	0	141
93	2140	0	142
93	2830	0	142
93	2922	0	142
94	299	0	95
94	440	0	107
94	976	0	127
94	1344	0	132
94	1612	0	141
94	1650	0	141
94	1668	0	141
94	1712	0	141
94	1992	0	141
94	2800	0	142
94	2804	0	142
94	2860	0	142
95	300	0	96
95	461	0	111
95	1192	0	131
95	1348	0	132
95	1522	0	141
95	1536	0	141
95	1926	0	141
95	2120	0	141
95	2784	0	142
95	2818	0	142
95	2822	0	142
95	3400	0	142
96	301	0	97
96	445	0	110
96	964	0	126
96	1290	0	131
96	1340	0	132
96	1692	0	141
96	1924	0	141
96	1986	0	141
96	2182	0	142
96	2186	0	142
96	2454	0	142
96	2754	0	142
96	2832	0	142
96	2854	0	142
96	3380	0	142
97	302	0	98
97	429	0	103
97	434	0	103
97	472	0	116
97	596	0	118
97	598	0	118
97	764	0	119
97	1182	0	131
97	1518	0	141
97	1684	0	141
97	2096	0	141
97	2188	0	142
97	2372	0	142
97	2452	0	142
97	2456	0	142
97	2924	0	142
97	3404	0	142
98	329	0	99
98	511	0	116
98	536	0	117
98	753	0	119
98	759	0	119
98	813	0	119
98	870	0	124
98	942	0	124
98	1060	0	127
98	1150	0	131
98	1162	0	131
98	1206	0	131
98	1402	0	133
98	1762	0	141
98	1802	0	141
98	2200	0	142
98	2566	0	142
98	2584	0	142
98	2904	0	142
98	3200	0	142
99	345	0	100
99	1368	0	133
99	1410	0	133
99	1794	0	141
99	2220	0	142
99	2306	0	142
100	393	0	101
100	555	0	117
100	667	0	118
100	935	0	124
100	939	0	124
100	994	0	127
100	1096	0	131
100	1782	0	141
100	1860	0	141
100	2316	0	142
100	2418	0	142
100	2698	0	142
101	399	0	102
101	910	0	124
101	922	0	124
101	925	0	124
101	992	0	127
101	1018	0	127
101	1080	0	131
101	1088	0	131
101	1094	0	131
101	1148	0	131
101	1776	0	141
101	2320	0	142
101	2420	0	142
101	2690	0	142
101	2906	0	142
101	3136	0	142
102	409	0	103
102	510	0	116
102	907	0	124
102	912	0	124
102	938	0	124
102	1092	0	131
102	1770	0	141
102	1806	0	141
102	2676	0	142
102	2944	0	142
103	435	0	104
103	437	0	105
103	765	0	119
103	978	0	127
103	1190	0	131
103	1534	0	141
103	1690	0	141
103	1700	0	141
103	2816	0	142
103	2866	0	142
103	3376	0	142
104	436	0	105
104	455	0	111
104	1528	0	141
104	1656	0	141
104	1672	0	141
104	1708	0	141
104	1714	0	141
104	2160	0	142
104	2466	0	142
104	2796	0	142
104	2838	0	142
105	438	0	106
105	454	0	111
105	961	0	126
105	1670	0	141
105	2124	0	141
105	2162	0	142
105	2798	0	142
106	439	0	107
106	456	0	111
106	1284	0	131
106	1526	0	141
106	2128	0	141
106	2132	0	142
106	2806	0	142
107	441	0	108
107	597	0	118
107	2782	0	142
107	2824	0	142
108	442	0	109
108	444	0	110
108	457	0	111
108	460	0	111
108	1188	0	131
108	1996	0	141
108	2166	0	142
108	2464	0	142
108	2780	0	142
108	2844	0	142
108	3396	0	142
109	443	0	110
109	459	0	111
109	962	0	126
109	967	0	126
109	1278	0	131
109	1282	0	131
109	2100	0	141
109	2106	0	141
109	2468	0	142
109	2758	0	142
109	2766	0	142
109	2808	0	142
109	2846	0	142
109	2864	0	142
110	453	0	111
110	462	0	111
110	1184	0	131
110	1288	0	131
110	1604	0	141
110	1662	0	141
110	1686	0	141
110	1706	0	141
110	1998	0	141
110	2110	0	141
110	2122	0	141
110	2136	0	142
110	2762	0	142
110	2786	0	142
111	463	0	112
111	1652	0	141
111	2764	0	142
112	464	0	113
112	2126	0	141
113	465	0	114
113	968	0	126
114	466	0	115
114	969	0	126
114	2770	0	142
115	471	0	116
115	1280	0	131
115	1530	0	141
115	1654	0	141
115	1994	0	141
115	2134	0	142
115	2756	0	142
115	2840	0	142
115	2848	0	142
116	532	0	117
117	571	0	118
117	601	0	118
117	637	0	118
117	719	0	118
117	807	0	119
117	826	0	119
117	865	0	124
117	949	0	124
117	985	0	127
117	989	0	127
117	1114	0	131
117	1632	0	141
117	1742	0	141
117	1886	0	141
117	1914	0	141
117	1964	0	141
117	2090	0	141
117	2406	0	142
117	2438	0	142
117	2448	0	142
117	2490	0	142
117	2578	0	142
117	2608	0	142
118	738	0	119
118	884	0	124
118	2152	0	142
118	3064	0	142
119	833	0	120
119	845	0	124
120	834	0	121
120	836	0	122
120	839	0	124
120	844	0	124
121	835	0	122
121	840	0	124
121	842	0	124
122	837	0	123
123	838	0	124
123	841	0	124
123	843	0	124
124	952	0	125
124	2114	0	141
125	957	0	126
125	959	0	126
125	977	0	127
125	1660	0	141
125	1930	0	141
125	2108	0	141
125	2850	0	142
125	2858	0	142
125	3364	0	142
126	973	0	127
127	1322	0	132
127	1642	0	141
127	2262	0	142
127	3060	0	142
128	1366	0	133
128	1428	0	138
128	1432	0	139
128	1450	0	140
128	1462	0	141
129	1412	0	134
129	1416	0	135
129	1440	0	139
129	1454	0	141
129	1464	0	141
130	1414	0	135
130	1436	0	139
130	1460	0	141
130	1466	0	141
130	2300	0	142
130	2304	0	142
131	1418	0	136
131	1438	0	139
132	1420	0	137
132	1424	0	138
132	1444	0	139
132	2302	0	142
133	1422	0	138
133	1426	0	138
133	1442	0	139
134	1430	0	139
134	1434	0	139
134	1446	0	139
135	1448	0	140
136	1452	0	141
137	2130	0	142
138	2414	0	142

