version 3
run General-310-20250904-14:13:20-15719
attr configname General
attr datetime 20250904-14:13:20
attr datetimef 20250904-141320
attr experiment General
attr inifile omnetpp.ini
attr iterationvars ""
attr iterationvarsd ""
attr iterationvarsf ""
attr measurement ""
attr network TaxiNetwork
attr processid 15719
attr repetition 310
attr replication #310
attr resultdir results
attr runnumber 310
attr seedset 310
config network TaxiNetwork
config seed-set 310
config num-rngs 1
config sim-time-limit 10s
config repeat 500
config *.numWalkers 1
config *.enableDuplication true
config *.rc 700
config **.node[0].xCor 2933
config **.node[0].yCor 2747
config **.node[1].xCor 2919
config **.node[1].yCor 2817
config **.node[2].xCor 2910
config **.node[2].yCor 2861
config **.node[3].xCor 2429
config **.node[3].yCor 2851
config **.node[4].xCor 2908
config **.node[4].yCor 2714
config **.node[5].xCor 2606
config **.node[5].yCor 2722
config **.node[6].xCor 2575
config **.node[6].yCor 2753
config **.node[7].xCor 2654
config **.node[7].yCor 2513
config **.node[8].xCor 2773
config **.node[8].yCor 2580
config **.node[9].xCor 3043
config **.node[9].yCor 2780
config **.node[10].xCor 3020
config **.node[10].yCor 2813
config **.node[11].xCor 2599
config **.node[11].yCor 2300
config **.node[12].xCor 2917
config **.node[12].yCor 2698
config **.node[13].xCor 2625
config **.node[13].yCor 2641
config **.node[14].xCor 2604
config **.node[14].yCor 2790
config **.node[15].xCor 2786
config **.node[15].yCor 3082
config **.node[16].xCor 2603
config **.node[16].yCor 2802
config **.node[17].xCor 2637
config **.node[17].yCor 2869
config **.node[18].xCor 2675
config **.node[18].yCor 2955
config **.node[19].xCor 2845
config **.node[19].yCor 2937
config **.node[20].xCor 2860
config **.node[20].yCor 2888
config **.node[21].xCor 2843
config **.node[21].yCor 4158
config **.node[22].xCor 2852
config **.node[22].yCor 4017
config **.node[23].xCor 2892
config **.node[23].yCor 4961
config **.node[24].xCor 2313
config **.node[24].yCor 3993
config **.node[25].xCor 2891
config **.node[25].yCor 4959
config **.node[26].xCor 2370
config **.node[26].yCor 4050
config **.node[27].xCor 2788
config **.node[27].yCor 3958
config **.node[28].xCor 2819
config **.node[28].yCor 4428
config **.node[29].xCor 2790
config **.node[29].yCor 3761
config **.node[30].xCor 2809
config **.node[30].yCor 2908
config **.node[31].xCor 2919
config **.node[31].yCor 3575
config **.node[32].xCor 2946
config **.node[32].yCor 3466
config **.node[33].xCor 2911
config **.node[33].yCor 3453
config **.node[34].xCor 2370
config **.node[34].yCor 3656
config **.node[35].xCor 2438
config **.node[35].yCor 3738
config **.node[36].xCor 2737
config **.node[36].yCor 3570
config **.node[37].xCor 2921
config **.node[37].yCor 3698
config **.node[38].xCor 2907
config **.node[38].yCor 5197
config **.node[39].xCor 2860
config **.node[39].yCor 3852
config **.node[40].xCor 2927
config **.node[40].yCor 3684
config **.node[41].xCor 3023
config **.node[41].yCor 5313
config **.node[42].xCor 3220
config **.node[42].yCor 5811
config **.node[43].xCor 3432
config **.node[43].yCor 5715
config **.node[44].xCor 2754
config **.node[44].yCor 2463
config **.node[45].xCor 2646
config **.node[45].yCor 2673
config **.node[46].xCor 3051
config **.node[46].yCor 2792
config **.node[47].xCor 1666
config **.node[47].yCor 3697
config **.node[48].xCor 1662
config **.node[48].yCor 3694
config **.node[49].xCor 1664
config **.node[49].yCor 3667
config **.node[50].xCor 1660
config **.node[50].yCor 3664
config **.node[51].xCor 1710
config **.node[51].yCor 3573
config **.node[52].xCor 2082
config **.node[52].yCor 2650
config **.node[53].xCor 2086
config **.node[53].yCor 2657
config **.node[54].xCor 2257
config **.node[54].yCor 3232
config **.node[55].xCor 2258
config **.node[55].yCor 3225
config **.node[56].xCor 1926
config **.node[56].yCor 2570
config **.node[57].xCor 1926
config **.node[57].yCor 2576
config **.node[58].xCor 2104
config **.node[58].yCor 1758
config **.node[59].xCor 1957
config **.node[59].yCor 1826
config **.node[60].xCor 3473
config **.node[60].yCor 1523
config **.node[61].xCor 3335
config **.node[61].yCor 1726
config **.node[62].xCor 3478
config **.node[62].yCor 1517
config **.node[63].xCor 3386
config **.node[63].yCor 2119
config **.node[64].xCor 3474
config **.node[64].yCor 1762
config **.node[65].xCor 3797
config **.node[65].yCor 2099
config **.node[66].xCor 3642
config **.node[66].yCor 2136
config **.node[67].xCor 3481
config **.node[67].yCor 2334
config **.node[68].xCor 3088
config **.node[68].yCor 1505
config **.node[69].xCor 3037
config **.node[69].yCor 1693
config **.node[70].xCor 3026
config **.node[70].yCor 1700
config **.node[71].xCor 3019
config **.node[71].yCor 669
config **.node[72].xCor 3513
config **.node[72].yCor 1358
config **.node[73].xCor 3545
config **.node[73].yCor 1230
config **.node[74].xCor 4228
config **.node[74].yCor 4220
config **.node[75].xCor 3379
config **.node[75].yCor 1207
config **.node[76].xCor 3596
config **.node[76].yCor 963
config **.node[77].xCor 3637
config **.node[77].yCor 1188
config **.node[78].xCor 3759
config **.node[78].yCor 1030
config **.node[79].xCor 2918
config **.node[79].yCor 1455
config **.node[80].xCor 2711
config **.node[80].yCor 1297
config **.node[81].xCor 439
config **.node[81].yCor 1623
config **.node[82].xCor 2857
config **.node[82].yCor 3581
config **.node[83].xCor 2858
config **.node[83].yCor 3584
config **.node[84].xCor 2999
config **.node[84].yCor 2636
config **.node[85].xCor 2905
config **.node[85].yCor 2778
config **.node[86].xCor 2653
config **.node[86].yCor 2845
config **.node[87].xCor 2864
config **.node[87].yCor 2836
config **.node[88].xCor 2426
config **.node[88].yCor 2892
config **.node[89].xCor 2964
config **.node[89].yCor 2804
config **.node[90].xCor 2586
config **.node[90].yCor 3135
config **.node[91].xCor 2864
config **.node[91].yCor 2980
config **.node[92].xCor 2527
config **.node[92].yCor 3219
config **.node[93].xCor 2863
config **.node[93].yCor 3142
config **.node[94].xCor 2485
config **.node[94].yCor 3269
config **.node[95].xCor 2653
config **.node[95].yCor 1065
config **.node[96].xCor 4062
config **.node[96].yCor 400
config **.node[97].xCor 5762
config **.node[97].yCor 3023
config **.node[98].xCor 1414
config **.node[98].yCor 3461
config **.node[99].xCor 2911
config **.node[99].yCor 1737
config **.node[100].xCor 2595
config **.node[100].yCor 2299
config **.node[101].xCor 2702
config **.node[101].yCor 3419
config **.node[102].xCor 2813
config **.node[102].yCor 3307
config **.node[103].xCor 2638
config **.node[103].yCor 2258
config **.node[104].xCor 2590
config **.node[104].yCor 3125
config **.node[105].xCor 1856
config **.node[105].yCor 2990
config **.node[106].xCor 1894
config **.node[106].yCor 2239
config **.node[107].xCor 383
config **.node[107].yCor 1251
config **.node[108].xCor 3447
config **.node[108].yCor 5489
config **.node[109].xCor 3450
config **.node[109].yCor 5697
config **.node[110].xCor 2719
config **.node[110].yCor 1920
config **.node[111].xCor 2085
config **.node[111].yCor 2389
config **.node[112].xCor 1910
config **.node[112].yCor 2548
config **.node[113].xCor 2069
config **.node[113].yCor 2050
config **.node[114].xCor 2184
config **.node[114].yCor 2209
config **.node[115].xCor 2278
config **.node[115].yCor 2390
config **.node[116].xCor 2249
config **.node[116].yCor 2299
config **.node[117].xCor 2356
config **.node[117].yCor 2303
config **.node[118].xCor 2192
config **.node[118].yCor 2475
config **.node[119].xCor 1720
config **.node[119].yCor 2911
config **.node[120].xCor 2400
config **.node[120].yCor 2887
config **.node[121].xCor 3344
config **.node[121].yCor 1890
config **.node[122].xCor 3136
config **.node[122].yCor 2418
config **.node[123].xCor 3243
config **.node[123].yCor 2525
config **.node[124].xCor 2396
config **.node[124].yCor 1267
config **.node[125].xCor 467
config **.node[125].yCor 1875
config **.node[126].xCor 3506
config **.node[126].yCor 1221
config **.node[127].xCor 1034
config **.node[127].yCor 1474
config **.node[128].xCor 2908
config **.node[128].yCor 1784
config **.node[129].xCor 2876
config **.node[129].yCor 1761
config **.node[130].xCor 2849
config **.node[130].yCor 1795
config **.node[131].xCor 3029
config **.node[131].yCor 1859
config **.node[132].xCor 2924
config **.node[132].yCor 1848
config **.node[133].xCor 3493
config **.node[133].yCor 1559
config **.node[134].xCor 2760
config **.node[134].yCor 1761
config **.node[135].xCor 1644
config **.node[135].yCor 3755
config **.node[136].xCor 1463
config **.node[136].yCor 3432
config **.node[137].xCor 2595
config **.node[137].yCor 2849
config **.node[138].xCor 2581
config **.node[138].yCor 2867
config **.node[139].xCor 2524
config **.node[139].yCor 2911
config **.node[140].xCor 2570
config **.node[140].yCor 2924
config **.node[141].xCor 2676
config **.node[141].yCor 2890
config **.node[142].xCor 2666
config **.node[142].yCor 2876
config **.node[143].xCor 3735
config **.node[143].yCor 1726
config **.node[144].xCor 1637
config **.node[144].yCor 3438

vector 0 TaxiNetwork.node[87] visitedPerTimestep ETV
vector 1 TaxiNetwork.node[1] visitedPerTimestep ETV
vector 2 TaxiNetwork.node[9] visitedPerTimestep ETV
vector 3 TaxiNetwork.node[17] visitedPerTimestep ETV
vector 4 TaxiNetwork.node[11] visitedPerTimestep ETV
vector 5 TaxiNetwork.node[3] visitedPerTimestep ETV
vector 6 TaxiNetwork.node[8] visitedPerTimestep ETV
vector 7 TaxiNetwork.node[118] visitedPerTimestep ETV
vector 8 TaxiNetwork.node[114] visitedPerTimestep ETV
vector 9 TaxiNetwork.node[30] visitedPerTimestep ETV
vector 10 TaxiNetwork.node[138] visitedPerTimestep ETV
vector 11 TaxiNetwork.node[111] visitedPerTimestep ETV
vector 12 TaxiNetwork.node[44] visitedPerTimestep ETV
vector 13 TaxiNetwork.node[18] visitedPerTimestep ETV
vector 14 TaxiNetwork.node[55] visitedPerTimestep ETV
vector 15 TaxiNetwork.node[91] visitedPerTimestep ETV
vector 16 TaxiNetwork.node[86] visitedPerTimestep ETV
vector 17 TaxiNetwork.node[0] visitedPerTimestep ETV
vector 18 TaxiNetwork.node[4] visitedPerTimestep ETV
vector 19 TaxiNetwork.node[104] visitedPerTimestep ETV
vector 20 TaxiNetwork.node[85] visitedPerTimestep ETV
vector 21 TaxiNetwork.node[32] visitedPerTimestep ETV
vector 22 TaxiNetwork.node[19] visitedPerTimestep ETV
vector 23 TaxiNetwork.node[141] visitedPerTimestep ETV
vector 24 TaxiNetwork.node[13] visitedPerTimestep ETV
vector 25 TaxiNetwork.node[90] visitedPerTimestep ETV
vector 26 TaxiNetwork.node[22] visitedPerTimestep ETV
vector 27 TaxiNetwork.node[82] visitedPerTimestep ETV
vector 28 TaxiNetwork.node[36] visitedPerTimestep ETV
vector 29 TaxiNetwork.node[92] visitedPerTimestep ETV
vector 30 TaxiNetwork.node[89] visitedPerTimestep ETV
vector 31 TaxiNetwork.node[16] visitedPerTimestep ETV
vector 32 TaxiNetwork.node[103] visitedPerTimestep ETV
vector 33 TaxiNetwork.node[110] visitedPerTimestep ETV
vector 34 TaxiNetwork.node[68] visitedPerTimestep ETV
vector 35 TaxiNetwork.node[126] visitedPerTimestep ETV
vector 36 TaxiNetwork.node[64] visitedPerTimestep ETV
vector 37 TaxiNetwork.node[75] visitedPerTimestep ETV
vector 38 TaxiNetwork.node[79] visitedPerTimestep ETV
vector 39 TaxiNetwork.node[63] visitedPerTimestep ETV
vector 40 TaxiNetwork.node[133] visitedPerTimestep ETV
vector 41 TaxiNetwork.node[99] visitedPerTimestep ETV
vector 42 TaxiNetwork.node[129] visitedPerTimestep ETV
vector 43 TaxiNetwork.node[132] visitedPerTimestep ETV
vector 44 TaxiNetwork.node[60] visitedPerTimestep ETV
vector 45 TaxiNetwork.node[77] visitedPerTimestep ETV
vector 46 TaxiNetwork.node[72] visitedPerTimestep ETV
vector 47 TaxiNetwork.node[73] visitedPerTimestep ETV
vector 48 TaxiNetwork.node[62] visitedPerTimestep ETV
vector 49 TaxiNetwork.node[78] visitedPerTimestep ETV
vector 50 TaxiNetwork.node[96] visitedPerTimestep ETV
vector 51 TaxiNetwork.node[130] visitedPerTimestep ETV
vector 52 TaxiNetwork.node[128] visitedPerTimestep ETV
vector 53 TaxiNetwork.node[70] visitedPerTimestep ETV
vector 54 TaxiNetwork.node[134] visitedPerTimestep ETV
vector 55 TaxiNetwork.node[61] visitedPerTimestep ETV
vector 56 TaxiNetwork.node[143] visitedPerTimestep ETV
vector 57 TaxiNetwork.node[69] visitedPerTimestep ETV
vector 58 TaxiNetwork.node[7] visitedPerTimestep ETV
vector 59 TaxiNetwork.node[46] visitedPerTimestep ETV
vector 60 TaxiNetwork.node[140] visitedPerTimestep ETV
vector 61 TaxiNetwork.node[88] visitedPerTimestep ETV
vector 62 TaxiNetwork.node[14] visitedPerTimestep ETV
vector 63 TaxiNetwork.node[142] visitedPerTimestep ETV
vector 64 TaxiNetwork.node[102] visitedPerTimestep ETV
vector 65 TaxiNetwork.node[137] visitedPerTimestep ETV
vector 66 TaxiNetwork.node[100] visitedPerTimestep ETV
vector 67 TaxiNetwork.node[93] visitedPerTimestep ETV
vector 68 TaxiNetwork.node[122] visitedPerTimestep ETV
vector 69 TaxiNetwork.node[66] visitedPerTimestep ETV
vector 70 TaxiNetwork.node[121] visitedPerTimestep ETV
vector 71 TaxiNetwork.node[65] visitedPerTimestep ETV
vector 72 TaxiNetwork.node[76] visitedPerTimestep ETV
vector 73 TaxiNetwork.node[139] visitedPerTimestep ETV
vector 74 TaxiNetwork.node[117] visitedPerTimestep ETV
vector 75 TaxiNetwork.node[58] visitedPerTimestep ETV
vector 76 TaxiNetwork.node[59] visitedPerTimestep ETV
vector 77 TaxiNetwork.node[115] visitedPerTimestep ETV
vector 78 TaxiNetwork.node[52] visitedPerTimestep ETV
vector 79 TaxiNetwork.node[54] visitedPerTimestep ETV
vector 80 TaxiNetwork.node[144] visitedPerTimestep ETV
vector 81 TaxiNetwork.node[135] visitedPerTimestep ETV
vector 82 TaxiNetwork.node[51] visitedPerTimestep ETV
vector 83 TaxiNetwork.node[49] visitedPerTimestep ETV
vector 84 TaxiNetwork.node[35] visitedPerTimestep ETV
vector 85 TaxiNetwork.node[40] visitedPerTimestep ETV
vector 86 TaxiNetwork.node[29] visitedPerTimestep ETV
vector 87 TaxiNetwork.node[2] visitedPerTimestep ETV
vector 88 TaxiNetwork.node[6] visitedPerTimestep ETV
vector 89 TaxiNetwork.node[10] visitedPerTimestep ETV
vector 90 TaxiNetwork.node[113] visitedPerTimestep ETV
vector 91 TaxiNetwork.node[33] visitedPerTimestep ETV
vector 92 TaxiNetwork.node[37] visitedPerTimestep ETV
vector 93 TaxiNetwork.node[120] visitedPerTimestep ETV
vector 94 TaxiNetwork.node[5] visitedPerTimestep ETV
vector 95 TaxiNetwork.node[12] visitedPerTimestep ETV
vector 96 TaxiNetwork.node[15] visitedPerTimestep ETV
vector 97 TaxiNetwork.node[83] visitedPerTimestep ETV
vector 98 TaxiNetwork.node[26] visitedPerTimestep ETV
vector 99 TaxiNetwork.node[24] visitedPerTimestep ETV
vector 100 TaxiNetwork.node[28] visitedPerTimestep ETV
vector 101 TaxiNetwork.node[34] visitedPerTimestep ETV
vector 102 TaxiNetwork.node[74] visitedPerTimestep ETV
vector 103 TaxiNetwork.node[21] visitedPerTimestep ETV
vector 104 TaxiNetwork.node[39] visitedPerTimestep ETV
vector 105 TaxiNetwork.node[84] visitedPerTimestep ETV
vector 106 TaxiNetwork.node[101] visitedPerTimestep ETV
vector 107 TaxiNetwork.node[27] visitedPerTimestep ETV
vector 108 TaxiNetwork.node[94] visitedPerTimestep ETV
vector 109 TaxiNetwork.node[56] visitedPerTimestep ETV
vector 110 TaxiNetwork.node[131] visitedPerTimestep ETV
vector 111 TaxiNetwork.node[80] visitedPerTimestep ETV
vector 112 TaxiNetwork.node[124] visitedPerTimestep ETV
vector 113 TaxiNetwork.node[105] visitedPerTimestep ETV
vector 114 TaxiNetwork.node[45] visitedPerTimestep ETV
vector 115 TaxiNetwork.node[20] visitedPerTimestep ETV
vector 116 TaxiNetwork.node[53] visitedPerTimestep ETV
vector 117 TaxiNetwork.node[123] visitedPerTimestep ETV
vector 118 TaxiNetwork.node[31] visitedPerTimestep ETV
vector 119 TaxiNetwork.node[116] visitedPerTimestep ETV
vector 120 TaxiNetwork.node[106] visitedPerTimestep ETV
vector 121 TaxiNetwork.node[67] visitedPerTimestep ETV
vector 122 TaxiNetwork.node[119] visitedPerTimestep ETV
vector 123 TaxiNetwork.node[57] visitedPerTimestep ETV
vector 124 TaxiNetwork.node[112] visitedPerTimestep ETV
vector 125 TaxiNetwork.node[97] visitedPerTimestep ETV
vector 126 TaxiNetwork.node[108] visitedPerTimestep ETV
vector 127 TaxiNetwork.node[43] visitedPerTimestep ETV
vector 128 TaxiNetwork.node[109] visitedPerTimestep ETV
vector 129 TaxiNetwork.node[127] visitedPerTimestep ETV
vector 130 TaxiNetwork.node[42] visitedPerTimestep ETV
vector 131 TaxiNetwork.node[38] visitedPerTimestep ETV
vector 132 TaxiNetwork.node[41] visitedPerTimestep ETV
vector 133 TaxiNetwork.node[23] visitedPerTimestep ETV
vector 134 TaxiNetwork.node[95] visitedPerTimestep ETV
vector 135 TaxiNetwork.node[71] visitedPerTimestep ETV
vector 136 TaxiNetwork.node[136] visitedPerTimestep ETV
vector 137 TaxiNetwork.node[98] visitedPerTimestep ETV
vector 138 TaxiNetwork.node[47] visitedPerTimestep ETV
vector 139 TaxiNetwork.node[48] visitedPerTimestep ETV
vector 140 TaxiNetwork.node[25] visitedPerTimestep ETV
0	1	0	1
0	152	0	74
0	224	0	95
0	338	0	115
0	406	0	121
0	467	0	121
0	570	0	122
0	777	0	129
0	889	0	129
0	900	0	129
0	934	0	129
0	1052	0	131
0	1134	0	131
0	1566	0	136
0	1700	0	136
0	1840	0	136
0	1854	0	136
0	1920	0	136
0	2292	0	136
0	2422	0	136
0	2508	0	136
0	2822	0	140
0	2846	0	140
0	2992	0	140
0	3024	0	140
0	3108	0	140
0	3724	0	140
0	3784	0	142
0	3804	0	144
0	4252	0	144
0	4788	0	144
0	5148	0	144
0	6068	0	144
0	6104	0	144
0	6160	0	144
0	6424	0	144
0	6440	0	144
0	6452	0	144
0	6676	0	144
1	2	0	2
1	110	0	66
1	331	0	114
1	424	0	121
1	456	0	121
1	475	0	121
1	499	0	121
1	557	0	122
1	616	0	124
1	792	0	129
1	819	0	129
1	829	0	129
1	835	0	129
1	878	0	129
1	882	0	129
1	886	0	129
1	1350	0	136
1	1376	0	136
1	1402	0	136
1	1524	0	136
1	1678	0	136
1	1786	0	136
1	1846	0	136
1	1908	0	136
1	2040	0	136
1	2194	0	136
1	2236	0	136
1	2266	0	136
1	2338	0	136
1	2738	0	140
1	2878	0	140
1	2924	0	140
1	3552	0	140
1	3772	0	140
1	4276	0	144
1	4808	0	144
1	6140	0	144
1	6588	0	144
1	6628	0	144
1	6772	0	144
1	6780	0	144
2	3	0	3
2	118	0	69
2	155	0	74
2	229	0	96
2	417	0	121
2	541	0	122
2	664	0	125
2	778	0	129
2	857	0	129
2	883	0	129
2	937	0	129
2	944	0	129
2	1066	0	131
2	1570	0	136
2	1842	0	136
2	1942	0	136
2	1994	0	136
2	2102	0	136
2	2278	0	136
2	2488	0	136
2	2974	0	140
2	3028	0	140
2	3792	0	143
2	3904	0	144
2	4308	0	144
2	4400	0	144
2	4944	0	144
2	5748	0	144
2	6248	0	144
2	6512	0	144
3	4	0	4
3	116	0	68
3	288	0	110
3	409	0	121
3	549	0	122
3	572	0	122
3	581	0	122
3	704	0	129
3	751	0	129
3	773	0	129
3	911	0	129
3	961	0	129
3	1072	0	131
3	1200	0	135
3	1390	0	136
3	1408	0	136
3	1506	0	136
3	1542	0	136
3	1850	0	136
3	1894	0	136
3	2052	0	136
3	2066	0	136
3	2256	0	136
3	2388	0	136
3	2412	0	136
3	2470	0	136
3	2474	0	136
3	2510	0	136
3	2812	0	140
3	2902	0	140
3	3048	0	140
3	3712	0	140
3	3816	0	144
3	4184	0	144
3	4320	0	144
3	5296	0	144
3	5400	0	144
3	5680	0	144
3	6252	0	144
3	6568	0	144
4	5	0	5
4	104	0	63
4	149	0	73
4	185	0	87
4	192	0	88
4	206	0	91
4	712	0	129
4	780	0	129
4	858	0	129
4	1242	0	135
4	1410	0	136
4	1434	0	136
4	1502	0	136
4	1550	0	136
4	1578	0	136
4	1646	0	136
4	2072	0	136
4	2098	0	136
4	2536	0	136
4	2596	0	136
4	2690	0	140
4	2854	0	140
4	2904	0	140
4	2986	0	140
4	3588	0	140
4	4516	0	144
4	4692	0	144
4	5364	0	144
4	5408	0	144
4	5956	0	144
4	6256	0	144
4	6524	0	144
4	6708	0	144
4	6912	0	144
5	6	0	6
5	8	0	7
5	17	0	14
5	213	0	93
5	335	0	114
5	346	0	117
5	370	0	119
5	373	0	119
5	389	0	120
5	397	0	120
5	632	0	125
5	662	0	125
5	824	0	129
5	862	0	129
5	938	0	129
5	1148	0	131
5	1414	0	136
5	1428	0	136
5	1480	0	136
5	1488	0	136
5	1716	0	136
5	1732	0	136
5	1844	0	136
5	2104	0	136
5	2112	0	136
5	2324	0	136
5	2418	0	136
5	2804	0	140
5	2838	0	140
5	2858	0	140
5	2914	0	140
5	3136	0	140
5	3956	0	144
5	4248	0	144
5	4872	0	144
5	4972	0	144
5	5304	0	144
5	5580	0	144
5	5648	0	144
5	5728	0	144
5	6572	0	144
5	7040	0	144
6	7	0	7
6	11	0	9
6	380	0	119
6	390	0	120
6	433	0	121
6	551	0	122
6	567	0	122
6	600	0	124
6	628	0	125
6	636	0	125
6	721	0	129
6	902	0	129
6	909	0	129
6	919	0	129
6	968	0	129
6	1246	0	135
6	1400	0	136
6	1756	0	136
6	2264	0	136
6	2294	0	136
6	2482	0	136
6	2546	0	136
6	2562	0	136
6	2688	0	140
6	2872	0	140
6	3876	0	144
6	4560	0	144
6	4656	0	144
6	4852	0	144
6	5516	0	144
6	5584	0	144
6	5704	0	144
6	5812	0	144
6	5960	0	144
6	6396	0	144
6	6480	0	144
6	6596	0	144
6	7288	0	144
7	9	0	8
7	400	0	121
7	420	0	121
7	932	0	129
7	963	0	129
7	1210	0	135
7	1244	0	135
7	1534	0	136
7	1558	0	136
7	1722	0	136
7	1884	0	136
7	2360	0	136
7	2572	0	136
7	2638	0	136
7	2884	0	140
7	3472	0	140
7	3692	0	140
7	4472	0	144
7	4496	0	144
7	4724	0	144
7	5004	0	144
7	5092	0	144
7	5644	0	144
7	5964	0	144
7	5984	0	144
7	6740	0	144
7	6884	0	144
7	6936	0	144
7	7176	0	144
7	7216	0	144
8	10	0	9
8	282	0	110
8	618	0	124
8	624	0	125
8	711	0	129
8	931	0	129
8	1882	0	136
8	3352	0	140
8	3952	0	144
8	4744	0	144
8	6212	0	144
8	6720	0	144
8	7200	0	144
9	12	0	10
9	24	0	20
9	96	0	61
9	164	0	78
9	339	0	115
9	358	0	118
9	376	0	119
9	412	0	121
9	473	0	121
9	542	0	122
9	579	0	122
9	585	0	122
9	733	0	129
9	820	0	129
9	897	0	129
9	901	0	129
9	966	0	129
9	975	0	129
9	990	0	129
9	1178	0	135
9	1346	0	136
9	1684	0	136
9	1698	0	136
9	1916	0	136
9	1936	0	136
9	1996	0	136
9	2118	0	136
9	2164	0	136
9	2258	0	136
9	2272	0	136
9	2342	0	136
9	2374	0	136
9	2406	0	136
9	2514	0	136
9	2520	0	136
9	2552	0	136
9	2712	0	140
9	2794	0	140
9	2842	0	140
9	2874	0	140
9	2916	0	140
9	2942	0	140
9	2982	0	140
9	3328	0	140
9	3388	0	140
9	3520	0	140
9	3756	0	140
9	3820	0	144
9	4172	0	144
9	4480	0	144
9	4628	0	144
9	4652	0	144
9	4660	0	144
9	5084	0	144
9	5736	0	144
9	6536	0	144
9	6760	0	144
10	13	0	11
10	203	0	90
10	291	0	110
10	439	0	121
10	515	0	122
10	627	0	125
10	629	0	125
10	660	0	125
10	665	0	125
10	876	0	129
10	972	0	129
10	1132	0	131
10	1136	0	131
10	1158	0	131
10	1364	0	136
10	1560	0	136
10	1824	0	136
10	1864	0	136
10	1876	0	136
10	2082	0	136
10	2230	0	136
10	2386	0	136
10	2524	0	136
10	2542	0	136
10	2564	0	136
10	2948	0	140
10	3044	0	140
10	3828	0	144
10	4208	0	144
10	4236	0	144
10	4272	0	144
10	4836	0	144
10	5140	0	144
10	5528	0	144
10	6268	0	144
10	6624	0	144
11	14	0	12
11	186	0	87
11	204	0	90
11	444	0	121
11	554	0	122
11	620	0	124
11	622	0	125
11	626	0	125
11	707	0	129
11	756	0	129
11	768	0	129
11	1532	0	136
11	1554	0	136
11	1736	0	136
11	1826	0	136
11	2182	0	136
11	2210	0	136
11	6352	0	144
11	6380	0	144
11	6988	0	144
12	15	0	13
12	157	0	74
12	266	0	105
12	292	0	110
12	604	0	124
12	633	0	125
12	710	0	129
12	717	0	129
12	844	0	129
12	859	0	129
12	881	0	129
12	921	0	129
12	1374	0	136
12	1712	0	136
12	1800	0	136
12	1922	0	136
12	1976	0	136
12	1992	0	136
12	2168	0	136
12	2486	0	136
12	2556	0	136
12	2598	0	136
12	2692	0	140
12	2990	0	140
12	3256	0	140
12	3700	0	140
12	3788	0	143
12	4396	0	144
12	4476	0	144
12	4492	0	144
12	4640	0	144
12	4712	0	144
12	5056	0	144
12	5292	0	144
12	5596	0	144
12	5684	0	144
12	6180	0	144
12	6528	0	144
12	7192	0	144
13	16	0	14
13	114	0	68
13	195	0	88
13	198	0	89
13	212	0	93
13	264	0	105
13	316	0	113
13	418	0	121
13	588	0	122
13	637	0	125
13	648	0	125
13	772	0	129
13	830	0	129
13	873	0	129
13	887	0	129
13	952	0	129
13	989	0	129
13	1096	0	131
13	1154	0	131
13	1204	0	135
13	1238	0	135
13	1274	0	135
13	1386	0	136
13	1674	0	136
13	1688	0	136
13	1692	0	136
13	1858	0	136
13	1924	0	136
13	1946	0	136
13	2110	0	136
13	2224	0	136
13	2310	0	136
13	2334	0	136
13	2382	0	136
13	2560	0	136
13	2674	0	137
13	2782	0	140
13	2866	0	140
13	2894	0	140
13	3432	0	140
13	3688	0	140
13	3868	0	144
13	4132	0	144
13	4204	0	144
13	4212	0	144
13	5352	0	144
13	5512	0	144
13	5776	0	144
13	6460	0	144
13	7264	0	144
14	18	0	15
14	29	0	24
14	175	0	84
14	326	0	114
14	413	0	121
14	452	0	121
14	631	0	125
14	736	0	129
14	831	0	129
14	915	0	129
14	1180	0	135
14	1218	0	135
14	1764	0	136
14	2004	0	136
14	2032	0	136
14	2414	0	136
14	2610	0	136
14	3040	0	140
14	3124	0	140
14	3944	0	144
14	4216	0	144
14	4292	0	144
14	4372	0	144
14	4532	0	144
14	4540	0	144
14	4956	0	144
14	5384	0	144
14	5724	0	144
14	6340	0	144
14	6404	0	144
14	6892	0	144
14	6904	0	144
14	7360	0	144
15	19	0	16
15	215	0	94
15	271	0	106
15	461	0	121
15	464	0	121
15	558	0	122
15	782	0	129
15	823	0	129
15	836	0	129
15	904	0	129
15	908	0	129
15	914	0	129
15	954	0	129
15	1104	0	131
15	1170	0	133
15	1372	0	136
15	1378	0	136
15	1474	0	136
15	1760	0	136
15	2290	0	136
15	2790	0	140
15	2934	0	140
15	3916	0	144
15	4376	0	144
15	4484	0	144
15	4840	0	144
15	5024	0	144
15	5144	0	144
15	5520	0	144
15	5600	0	144
15	5612	0	144
15	5672	0	144
15	6176	0	144
15	6468	0	144
15	7240	0	144
16	20	0	17
16	340	0	115
16	368	0	119
16	377	0	119
16	383	0	119
16	564	0	122
16	580	0	122
16	653	0	125
16	679	0	125
16	743	0	129
16	799	0	129
16	848	0	129
16	890	0	129
16	893	0	129
16	910	0	129
16	1128	0	131
16	1216	0	135
16	1494	0	136
16	1728	0	136
16	2186	0	136
16	2276	0	136
16	2802	0	140
16	2886	0	140
16	2896	0	140
16	2944	0	140
16	2988	0	140
16	3272	0	140
16	3304	0	140
16	3940	0	144
16	4228	0	144
16	4244	0	144
16	4324	0	144
16	4356	0	144
16	4616	0	144
16	4916	0	144
16	4948	0	144
16	4976	0	144
16	5488	0	144
16	5652	0	144
16	5712	0	144
16	6264	0	144
16	6276	0	144
16	6500	0	144
16	6580	0	144
16	6604	0	144
16	7272	0	144
17	21	0	18
17	97	0	61
17	115	0	68
17	460	0	121
17	556	0	122
17	645	0	125
17	650	0	125
17	741	0	129
17	771	0	129
17	1202	0	135
17	1504	0	136
17	1830	0	136
17	1874	0	136
17	1906	0	136
17	2166	0	136
17	2216	0	136
17	2238	0	136
17	2376	0	136
17	2420	0	136
17	2512	0	136
17	3512	0	140
17	4352	0	144
17	4612	0	144
17	4732	0	144
17	5392	0	144
17	5412	0	144
17	5456	0	144
17	6136	0	144
17	6148	0	144
17	6584	0	144
17	6768	0	144
17	7280	0	144
18	22	0	19
18	190	0	87
18	230	0	96
18	349	0	117
18	371	0	119
18	459	0	121
18	513	0	122
18	547	0	122
18	683	0	125
18	749	0	129
18	833	0	129
18	888	0	129
18	1088	0	131
18	1188	0	135
18	1416	0	136
18	2400	0	136
18	2550	0	136
18	2672	0	136
18	2888	0	140
18	2918	0	140
18	2928	0	140
18	2946	0	140
18	3300	0	140
18	4180	0	144
18	4552	0	144
18	5416	0	144
18	5452	0	144
18	5572	0	144
18	5732	0	144
18	5740	0	144
18	6008	0	144
18	6128	0	144
18	6516	0	144
19	23	0	20
19	101	0	63
19	210	0	93
19	258	0	104
19	290	0	110
19	314	0	113
19	322	0	113
19	332	0	114
19	374	0	119
19	391	0	120
19	498	0	121
19	518	0	122
19	522	0	122
19	737	0	129
19	742	0	129
19	745	0	129
19	971	0	129
19	986	0	129
19	1098	0	131
19	1650	0	136
19	1654	0	136
19	1740	0	136
19	1750	0	136
19	1808	0	136
19	2006	0	136
19	2190	0	136
19	2220	0	136
19	2434	0	136
19	2516	0	136
19	2620	0	136
19	2694	0	140
19	2828	0	140
19	3132	0	140
19	3296	0	140
19	3480	0	140
19	3516	0	140
19	3796	0	144
19	4488	0	144
19	4592	0	144
19	4680	0	144
19	4856	0	144
19	4884	0	144
19	4892	0	144
19	5016	0	144
19	5040	0	144
19	5464	0	144
19	5628	0	144
19	5668	0	144
19	6012	0	144
19	6044	0	144
19	6152	0	144
19	6648	0	144
19	6660	0	144
19	7400	0	144
20	25	0	21
20	199	0	89
20	219	0	95
20	223	0	95
20	232	0	96
20	287	0	110
20	474	0	121
20	552	0	122
20	603	0	124
20	794	0	129
20	812	0	129
20	828	0	129
20	868	0	129
20	1074	0	131
20	1090	0	131
20	1252	0	135
20	1260	0	135
20	1420	0	136
20	1424	0	136
20	1490	0	136
20	2062	0	136
20	2484	0	136
20	2532	0	136
20	2950	0	140
20	3060	0	140
20	3264	0	140
20	3324	0	140
20	3340	0	140
20	3456	0	140
20	3736	0	140
20	3812	0	144
20	4576	0	144
20	4812	0	144
20	4980	0	144
20	4996	0	144
20	5496	0	144
20	5700	0	144
20	5792	0	144
20	6272	0	144
20	6484	0	144
21	26	0	22
21	32	0	26
21	102	0	63
21	278	0	108
21	328	0	114
21	978	0	129
21	987	0	129
21	1054	0	131
21	1254	0	135
21	1968	0	136
21	1982	0	136
21	2410	0	136
21	2706	0	140
21	2778	0	140
21	3564	0	140
21	4188	0	144
21	4200	0	144
21	4588	0	144
21	5752	0	144
21	6016	0	144
21	6472	0	144
21	6552	0	144
22	27	0	23
22	194	0	88
22	321	0	113
22	379	0	119
22	440	0	121
22	514	0	122
22	630	0	125
22	635	0	125
22	682	0	125
22	787	0	129
22	843	0	129
22	871	0	129
22	877	0	129
22	1468	0	136
22	1520	0	136
22	2064	0	136
22	2300	0	136
22	2522	0	136
22	2626	0	136
22	2978	0	140
22	3036	0	140
22	3276	0	140
22	3400	0	140
22	3508	0	140
22	3856	0	144
22	4392	0	144
22	4688	0	144
22	4940	0	144
22	5272	0	144
22	5472	0	144
22	5576	0	144
22	6592	0	144
23	28	0	24
23	163	0	78
23	166	0	78
23	225	0	95
23	366	0	119
23	394	0	120
23	446	0	121
23	722	0	129
23	849	0	129
23	863	0	129
23	945	0	129
23	970	0	129
23	979	0	129
23	1168	0	132
23	1528	0	136
23	1574	0	136
23	1648	0	136
23	1832	0	136
23	1866	0	136
23	2096	0	136
23	2100	0	136
23	2162	0	136
23	2250	0	136
23	2478	0	136
23	2526	0	136
23	2574	0	136
23	2602	0	136
23	2818	0	140
23	2900	0	140
23	3460	0	140
23	4220	0	144
23	4364	0	144
23	4544	0	144
23	5020	0	144
23	5444	0	144
23	5676	0	144
23	5996	0	144
23	6400	0	144
23	6496	0	144
23	6612	0	144
23	6664	0	144
23	7312	0	144
24	30	0	25
24	154	0	74
24	188	0	87
24	345	0	117
24	434	0	121
24	442	0	121
24	484	0	121
24	595	0	124
24	906	0	129
24	967	0	129
24	1164	0	131
24	1198	0	135
24	1248	0	135
24	1384	0	136
24	1522	0	136
24	1572	0	136
24	2198	0	136
24	2240	0	136
24	2416	0	136
24	2432	0	136
24	2518	0	136
24	3280	0	140
24	3336	0	140
24	3404	0	140
24	3412	0	140
24	3436	0	140
24	3484	0	140
24	3808	0	144
24	3824	0	144
24	3860	0	144
24	3920	0	144
24	4816	0	144
24	4824	0	144
24	4832	0	144
24	5124	0	144
24	5640	0	144
24	5688	0	144
24	6060	0	144
24	6120	0	144
24	6172	0	144
24	6520	0	144
24	6764	0	144
24	6776	0	144
24	7296	0	144
25	31	0	26
25	107	0	64
25	178	0	84
25	183	0	87
25	265	0	105
25	272	0	106
25	320	0	113
25	396	0	120
25	533	0	122
25	545	0	122
25	560	0	122
25	582	0	122
25	605	0	124
25	651	0	125
25	654	0	125
25	728	0	129
25	740	0	129
25	764	0	129
25	834	0	129
25	899	0	129
25	965	0	129
25	1222	0	135
25	1266	0	135
25	1270	0	135
25	1682	0	136
25	1686	0	136
25	1792	0	136
25	2000	0	136
25	2044	0	136
25	2242	0	136
25	2282	0	136
25	2614	0	136
25	2650	0	136
25	2726	0	140
25	2870	0	140
25	2892	0	140
25	2976	0	140
25	3064	0	140
25	3096	0	140
25	3580	0	140
25	3776	0	140
25	3960	0	144
25	4776	0	144
25	4876	0	144
25	5028	0	144
25	5072	0	144
25	5284	0	144
25	5588	0	144
25	5708	0	144
25	5808	0	144
25	6292	0	144
25	6332	0	144
25	6636	0	144
25	6856	0	144
26	33	0	27
26	252	0	103
26	277	0	108
26	805	0	129
26	1356	0	136
26	1966	0	136
26	2352	0	136
26	2732	0	140
26	2748	0	140
26	2752	0	140
26	2776	0	140
26	2964	0	140
26	4048	0	144
26	4068	0	144
27	34	0	28
27	36	0	29
27	179	0	84
27	251	0	103
27	253	0	103
27	526	0	122
27	763	0	129
27	808	0	129
27	1360	0	136
27	1396	0	136
27	1746	0	136
27	1772	0	136
27	1776	0	136
27	2120	0	136
27	2348	0	136
27	2714	0	140
27	2724	0	140
27	2772	0	140
27	2956	0	140
27	3444	0	140
27	3972	0	144
27	4148	0	144
27	4436	0	144
27	4456	0	144
27	5800	0	144
27	6296	0	144
27	6644	0	144
28	35	0	29
28	318	0	113
28	327	0	114
28	449	0	121
28	462	0	121
28	497	0	121
28	747	0	129
28	786	0	129
28	1124	0	131
28	1354	0	136
28	1794	0	136
28	1972	0	136
28	1980	0	136
28	1998	0	136
28	2030	0	136
28	2146	0	136
28	2222	0	136
28	2248	0	136
28	2354	0	136
28	2394	0	136
28	2756	0	140
28	2980	0	140
28	3148	0	140
28	3888	0	144
28	4128	0	144
28	4144	0	144
28	4904	0	144
28	6848	0	144
28	7024	0	144
29	37	0	30
29	227	0	96
29	315	0	113
29	317	0	113
29	414	0	121
29	425	0	121
29	695	0	129
29	973	0	129
29	976	0	129
29	1182	0	135
29	1422	0	136
29	1768	0	136
29	1782	0	136
29	1940	0	136
29	2048	0	136
29	2094	0	136
29	2122	0	136
29	2196	0	136
29	2402	0	136
29	2736	0	140
29	2740	0	140
29	2844	0	140
29	3268	0	140
29	3732	0	140
29	4116	0	144
29	4772	0	144
29	5460	0	144
29	5616	0	144
29	6124	0	144
29	6312	0	144
29	6408	0	144
29	7344	0	144
30	38	0	31
30	106	0	64
30	112	0	67
30	156	0	74
30	193	0	88
30	201	0	90
30	386	0	120
30	528	0	122
30	561	0	122
30	571	0	122
30	597	0	124
30	677	0	125
30	685	0	125
30	700	0	129
30	739	0	129
30	781	0	129
30	814	0	129
30	1150	0	131
30	1224	0	135
30	1230	0	135
30	1258	0	135
30	1380	0	136
30	1462	0	136
30	1516	0	136
30	1564	0	136
30	1656	0	136
30	1758	0	136
30	1862	0	136
30	1888	0	136
30	1892	0	136
30	1944	0	136
30	2016	0	136
30	2042	0	136
30	2702	0	140
30	2840	0	140
30	4384	0	144
30	5152	0	144
30	5436	0	144
30	5772	0	144
30	6024	0	144
30	6548	0	144
31	39	0	32
31	202	0	90
31	221	0	95
31	262	0	105
31	357	0	118
31	426	0	121
31	472	0	121
31	495	0	121
31	546	0	122
31	601	0	124
31	696	0	129
31	769	0	129
31	1064	0	131
31	1094	0	131
31	1316	0	136
31	1508	0	136
31	1666	0	136
31	1714	0	136
31	1870	0	136
31	2056	0	136
31	2612	0	136
31	2930	0	140
31	3696	0	140
31	3852	0	144
31	3896	0	144
31	4120	0	144
31	4380	0	144
31	4636	0	144
31	4988	0	144
31	5556	0	144
31	5604	0	144
31	6108	0	144
32	40	0	33
32	92	0	58
32	187	0	87
32	196	0	88
32	268	0	105
32	284	0	110
32	310	0	113
32	312	0	113
32	351	0	117
32	385	0	120
32	427	0	121
32	480	0	121
32	516	0	122
32	538	0	122
32	702	0	129
32	726	0	129
32	1214	0	135
32	1498	0	136
32	1660	0	136
32	1706	0	136
32	1802	0	136
32	2058	0	136
32	2202	0	136
32	2582	0	136
32	2600	0	136
32	2654	0	136
32	2876	0	140
32	2998	0	140
32	3184	0	140
32	3332	0	140
32	3360	0	140
32	3492	0	140
32	4304	0	144
32	4316	0	144
32	4500	0	144
32	4508	0	144
32	4760	0	144
32	5096	0	144
32	6356	0	144
32	6376	0	144
32	6492	0	144
32	6508	0	144
32	6608	0	144
32	6816	0	144
33	41	0	34
33	48	0	39
33	77	0	53
33	84	0	54
33	309	0	113
33	479	0	121
33	509	0	121
33	927	0	129
33	1930	0	136
33	3364	0	140
33	3648	0	140
33	4796	0	144
34	42	0	35
34	46	0	38
34	61	0	47
34	125	0	70
34	294	0	110
34	609	0	124
34	1446	0	136
34	1582	0	136
34	1638	0	136
34	3240	0	140
34	5180	0	144
34	5220	0	144
34	5244	0	144
34	5252	0	144
34	5884	0	144
34	5940	0	144
34	6092	0	144
35	43	0	36
35	126	0	70
35	146	0	73
35	1584	0	136
35	3236	0	140
36	44	0	37
36	57	0	45
36	74	0	53
36	87	0	56
36	89	0	56
36	129	0	71
36	147	0	73
36	1002	0	129
36	1282	0	135
36	1294	0	136
36	1302	0	136
36	1308	0	136
36	1326	0	136
36	1334	0	136
36	1440	0	136
36	3208	0	140
36	5852	0	144
36	5924	0	144
37	45	0	38
37	51	0	41
37	67	0	51
37	128	0	71
37	135	0	72
37	142	0	73
37	1018	0	129
37	2662	0	136
37	3640	0	140
37	5872	0	144
38	47	0	39
38	52	0	41
38	76	0	53
38	301	0	113
38	925	0	129
38	1008	0	129
38	1456	0	136
38	1616	0	136
38	1622	0	136
38	3616	0	140
38	5172	0	144
38	5216	0	144
38	5856	0	144
38	5880	0	144
38	5892	0	144
38	5932	0	144
38	6236	0	144
39	49	0	40
39	124	0	70
39	130	0	71
39	297	0	111
39	506	0	121
39	508	0	121
39	1034	0	129
39	1044	0	131
39	1290	0	135
39	1610	0	136
39	3204	0	140
39	3244	0	140
39	3608	0	140
39	3660	0	140
39	3668	0	140
39	3676	0	140
39	5208	0	144
39	5236	0	144
39	5784	0	144
39	5844	0	144
39	5904	0	144
39	6076	0	144
39	6096	0	144
39	6808	0	144
40	50	0	41
40	59	0	46
40	68	0	51
40	79	0	53
40	82	0	54
40	137	0	72
40	144	0	73
40	305	0	113
40	1010	0	129
40	1040	0	131
40	1598	0	136
40	1628	0	136
40	1632	0	136
40	5168	0	144
40	5936	0	144
40	6804	0	144
41	53	0	42
41	75	0	53
41	1338	0	136
41	1590	0	136
41	1644	0	136
41	3188	0	140
41	3196	0	140
41	3656	0	140
41	3844	0	144
41	5176	0	144
41	5228	0	144
41	5948	0	144
42	54	0	43
42	71	0	51
42	994	0	129
42	1438	0	136
42	1452	0	136
42	3000	0	140
42	3200	0	140
42	3600	0	140
42	3620	0	140
42	4408	0	144
42	5908	0	144
42	5928	0	144
42	6084	0	144
42	6240	0	144
43	55	0	44
43	83	0	54
43	267	0	105
43	501	0	121
43	608	0	124
43	1004	0	129
43	1026	0	129
43	1030	0	129
43	1286	0	135
43	1342	0	136
43	1580	0	136
43	1620	0	136
43	1640	0	136
43	2584	0	136
43	4520	0	144
43	5240	0	144
43	5848	0	144
43	5888	0	144
43	5900	0	144
43	5920	0	144
43	6224	0	144
44	56	0	45
44	133	0	72
44	304	0	113
44	502	0	121
44	995	0	129
44	1020	0	129
44	1032	0	129
44	1604	0	136
44	5876	0	144
45	58	0	46
45	88	0	56
45	996	0	129
45	1444	0	136
45	1634	0	136
46	60	0	47
46	1016	0	129
46	1442	0	136
46	2590	0	136
46	2664	0	136
46	3232	0	140
46	5260	0	144
47	62	0	48
47	69	0	51
47	141	0	73
47	1636	0	136
47	3228	0	140
48	63	0	49
48	70	0	51
48	80	0	53
48	121	0	69
48	307	0	113
48	993	0	129
48	1006	0	129
48	1284	0	135
48	1292	0	136
48	1296	0	136
48	1626	0	136
48	2586	0	136
48	2592	0	136
48	2666	0	136
48	3220	0	140
48	5232	0	144
49	64	0	50
49	66	0	51
49	139	0	73
49	306	0	113
49	1298	0	136
49	2588	0	136
50	65	0	51
51	72	0	52
51	148	0	73
51	713	0	129
51	922	0	129
51	924	0	129
51	1592	0	136
51	1614	0	136
51	3604	0	140
51	5368	0	144
51	5952	0	144
51	6080	0	144
51	6704	0	144
52	73	0	53
52	78	0	53
52	120	0	69
52	293	0	110
52	612	0	124
52	926	0	129
52	1038	0	130
52	1594	0	136
52	3252	0	140
52	3592	0	140
52	3612	0	140
52	3672	0	140
52	5912	0	144
52	6812	0	144
53	81	0	54
53	298	0	111
53	303	0	113
53	311	0	113
53	504	0	121
53	1012	0	129
53	1022	0	129
53	1340	0	136
53	1448	0	136
53	1586	0	136
53	2656	0	136
53	2660	0	136
53	3636	0	140
53	3644	0	140
53	5224	0	144
53	5916	0	144
54	85	0	55
54	295	0	110
54	302	0	113
54	3632	0	140
54	4412	0	144
54	4420	0	144
54	5896	0	144
54	6220	0	144
55	86	0	56
55	132	0	72
55	503	0	121
55	507	0	121
55	1014	0	129
55	1036	0	129
55	1600	0	136
55	1606	0	136
55	2658	0	136
55	3652	0	140
55	5184	0	144
55	5256	0	144
56	90	0	57
56	123	0	70
56	143	0	73
56	145	0	73
56	997	0	129
56	999	0	129
56	1042	0	131
56	1300	0	136
56	3212	0	140
56	3224	0	140
56	5248	0	144
57	91	0	58
57	134	0	72
57	136	0	72
57	308	0	113
57	1288	0	135
57	1310	0	136
57	1642	0	136
58	93	0	59
58	211	0	93
58	517	0	122
58	550	0	122
58	770	0	129
58	1140	0	131
58	1680	0	136
58	1702	0	136
58	1708	0	136
58	1928	0	136
58	2370	0	136
58	2430	0	136
58	2506	0	136
58	2816	0	140
58	2820	0	140
58	3704	0	140
58	3720	0	140
58	3912	0	144
58	3928	0	144
58	4108	0	144
58	4312	0	144
58	4572	0	144
58	4604	0	144
58	4696	0	144
58	4740	0	144
58	4784	0	144
58	4992	0	144
58	5592	0	144
58	5744	0	144
58	6164	0	144
58	6192	0	144
58	6348	0	144
58	6388	0	144
58	7304	0	144
59	94	0	60
59	165	0	78
59	177	0	84
59	189	0	87
59	207	0	91
59	313	0	113
59	485	0	121
59	489	0	121
59	539	0	122
59	565	0	122
59	594	0	124
59	761	0	129
59	783	0	129
59	869	0	129
59	1070	0	131
59	1084	0	131
59	1278	0	135
59	1816	0	136
59	1838	0	136
59	1856	0	136
59	2200	0	136
59	2424	0	136
59	2792	0	140
59	2796	0	140
59	2814	0	140
59	3288	0	140
59	3500	0	140
59	3524	0	140
59	3872	0	144
59	4596	0	144
59	4648	0	144
59	4968	0	144
59	6188	0	144
59	6372	0	144
59	6756	0	144
59	6784	0	144
59	6832	0	144
60	95	0	61
60	99	0	62
60	103	0	63
60	150	0	73
60	162	0	78
60	176	0	84
60	217	0	94
60	233	0	96
60	263	0	105
60	286	0	110
60	348	0	117
60	372	0	119
60	401	0	121
60	453	0	121
60	476	0	121
60	487	0	121
60	496	0	121
60	534	0	122
60	598	0	124
60	634	0	125
60	647	0	125
60	735	0	129
60	837	0	129
60	874	0	129
60	1086	0	131
60	1194	0	135
60	1250	0	135
60	1418	0	136
60	1762	0	136
60	1860	0	136
60	2286	0	136
60	2322	0	136
60	2358	0	136
60	2396	0	136
60	2534	0	136
60	2634	0	136
60	3104	0	140
60	3320	0	140
60	3396	0	140
60	3544	0	140
60	3884	0	144
60	4224	0	144
60	4280	0	144
60	4632	0	144
60	4672	0	144
60	4700	0	144
60	4720	0	144
60	4984	0	144
60	5008	0	144
60	5388	0	144
60	5448	0	144
60	5624	0	144
60	6360	0	144
60	6576	0	144
60	6684	0	144
60	7376	0	144
61	98	0	62
61	153	0	74
61	222	0	95
61	228	0	96
61	280	0	109
61	330	0	114
61	342	0	116
61	381	0	119
61	441	0	121
61	451	0	121
61	553	0	122
61	661	0	125
61	723	0	129
61	846	0	129
61	941	0	129
61	1348	0	136
61	1514	0	136
61	1730	0	136
61	1990	0	136
61	2218	0	136
61	2226	0	136
61	2504	0	136
61	2530	0	136
61	2646	0	136
61	2786	0	140
61	2862	0	140
61	3020	0	140
61	3088	0	140
61	3292	0	140
61	3452	0	140
61	3880	0	144
61	4768	0	144
61	4828	0	144
61	4936	0	144
61	5324	0	144
61	5340	0	144
61	5476	0	144
61	5608	0	144
61	6420	0	144
62	100	0	63
62	482	0	121
62	490	0	121
62	548	0	122
62	559	0	122
62	574	0	122
62	599	0	124
62	638	0	125
62	766	0	129
62	939	0	129
62	1080	0	131
62	1412	0	136
62	1540	0	136
62	1672	0	136
62	2426	0	136
62	2830	0	140
62	2898	0	140
62	2908	0	140
62	3260	0	140
62	4176	0	144
62	4548	0	144
62	4708	0	144
62	5428	0	144
62	5508	0	144
62	5768	0	144
62	6336	0	144
62	6532	0	144
62	6888	0	144
62	6992	0	144
63	105	0	64
63	184	0	87
63	216	0	94
63	285	0	110
63	455	0	121
63	703	0	129
63	816	0	129
63	850	0	129
63	853	0	129
63	855	0	129
63	943	0	129
63	1076	0	131
63	1186	0	135
63	1464	0	136
63	1472	0	136
63	1484	0	136
63	1710	0	136
63	1900	0	136
63	1988	0	136
63	2060	0	136
63	2262	0	136
63	2274	0	136
63	2340	0	136
63	2490	0	136
63	2622	0	136
63	2632	0	136
63	2678	0	139
63	2856	0	140
63	2984	0	140
63	4728	0	144
63	4908	0	144
63	5336	0	144
63	5424	0	144
63	5568	0	144
63	6600	0	144
63	7256	0	144
64	108	0	65
64	240	0	98
64	249	0	102
64	261	0	105
64	450	0	121
64	486	0	121
64	520	0	122
64	529	0	122
64	659	0	125
64	676	0	125
64	748	0	129
64	790	0	129
64	821	0	129
64	875	0	129
64	896	0	129
64	916	0	129
64	981	0	129
64	1184	0	135
64	1262	0	135
64	1318	0	136
64	1404	0	136
64	1694	0	136
64	1744	0	136
64	1822	0	136
64	2020	0	136
64	2172	0	136
64	2192	0	136
64	2284	0	136
64	2302	0	136
64	2390	0	136
64	2604	0	136
64	2608	0	136
64	2940	0	140
64	2968	0	140
64	3176	0	140
64	4100	0	144
64	4124	0	144
64	4232	0	144
64	4464	0	144
64	5044	0	144
64	5396	0	144
64	5532	0	144
64	6432	0	144
64	6444	0	144
64	6564	0	144
64	7032	0	144
65	109	0	66
65	239	0	98
65	269	0	105
65	382	0	119
65	415	0	121
65	419	0	121
65	432	0	121
65	436	0	121
65	493	0	121
65	655	0	125
65	667	0	125
65	705	0	129
65	817	0	129
65	845	0	129
65	907	0	129
65	940	0	129
65	1082	0	131
65	1366	0	136
65	1752	0	136
65	1784	0	136
65	1834	0	136
65	1872	0	136
65	1902	0	136
65	1938	0	136
65	2092	0	136
65	2566	0	136
65	2570	0	136
65	2618	0	136
65	2652	0	136
65	2784	0	140
65	3384	0	140
65	3932	0	144
65	4240	0	144
65	4328	0	144
65	4528	0	144
65	4932	0	144
65	5716	0	144
65	6364	0	144
65	6908	0	144
65	7000	0	144
65	7328	0	144
66	111	0	67
66	510	0	121
66	569	0	122
66	586	0	122
66	607	0	124
66	867	0	129
66	1028	0	129
66	1208	0	135
66	1344	0	136
66	1530	0	136
66	1668	0	136
66	1804	0	136
66	1910	0	136
66	1926	0	136
66	1934	0	136
66	2922	0	140
66	3840	0	144
66	3848	0	144
66	4404	0	144
66	4524	0	144
66	5088	0	144
66	5132	0	144
66	6196	0	144
66	6244	0	144
66	6456	0	144
67	113	0	68
67	238	0	98
67	447	0	121
67	578	0	122
67	694	0	129
67	734	0	129
67	785	0	129
67	1102	0	131
67	1152	0	131
67	1190	0	135
67	1276	0	135
67	1352	0	136
67	1538	0	136
67	1836	0	136
67	1904	0	136
67	1974	0	136
67	2158	0	136
67	2288	0	136
67	2344	0	136
67	2378	0	136
67	2468	0	136
67	2824	0	140
67	2850	0	140
67	2860	0	140
67	2954	0	140
67	3144	0	140
67	3728	0	140
67	3908	0	144
67	5060	0	144
67	5108	0	144
67	5316	0	144
67	6656	0	144
67	6688	0	144
68	117	0	69
68	119	0	69
68	410	0	121
68	491	0	121
68	500	0	121
68	511	0	121
68	566	0	122
68	596	0	124
68	680	0	125
68	811	0	129
68	991	0	129
68	1314	0	136
68	1568	0	136
68	1932	0	136
68	3248	0	140
68	3716	0	140
68	3900	0	144
68	4512	0	144
68	4792	0	144
68	4800	0	144
68	5372	0	144
68	5656	0	144
68	5692	0	144
68	6064	0	144
68	6392	0	144
68	6700	0	144
69	122	0	70
69	992	0	129
69	998	0	129
69	1304	0	136
69	5164	0	144
69	5188	0	144
69	5204	0	144
69	5824	0	144
69	5832	0	144
69	5840	0	144
70	127	0	71
70	1312	0	136
70	1324	0	136
70	1332	0	136
70	1596	0	136
70	1602	0	136
70	1618	0	136
70	1624	0	136
70	3192	0	140
70	3216	0	140
70	3368	0	140
70	5828	0	144
70	6796	0	144
71	131	0	72
71	1000	0	129
71	1306	0	136
71	1330	0	136
71	1630	0	136
71	2668	0	136
71	5160	0	144
71	5192	0	144
71	5200	0	144
71	6800	0	144
72	138	0	73
72	140	0	73
73	151	0	74
73	289	0	110
73	404	0	121
73	483	0	121
73	543	0	122
73	555	0	122
73	592	0	124
73	797	0	129
73	880	0	129
73	913	0	129
73	951	0	129
73	983	0	129
73	1110	0	131
73	1264	0	135
73	1696	0	136
73	1738	0	136
73	1742	0	136
73	1812	0	136
73	1886	0	136
73	2012	0	136
73	2174	0	136
73	2332	0	136
73	2528	0	136
73	2558	0	136
73	2624	0	136
73	2684	0	140
73	2708	0	140
73	2972	0	140
73	2994	0	140
73	3116	0	140
73	3764	0	140
73	3924	0	144
73	4468	0	144
73	5308	0	144
73	5552	0	144
73	6752	0	144
73	7224	0	144
73	7320	0	144
73	7368	0	144
74	158	0	75
74	398	0	120
74	431	0	121
74	568	0	122
74	642	0	125
74	698	0	129
74	852	0	129
74	1160	0	131
74	1166	0	132
74	1754	0	136
74	2086	0	136
74	2204	0	136
74	2314	0	136
74	2492	0	136
74	2548	0	136
74	2568	0	136
74	2636	0	136
74	2640	0	136
74	2808	0	140
74	3532	0	140
74	3748	0	140
74	4268	0	144
74	4424	0	144
74	4568	0	144
74	4756	0	144
74	5636	0	144
74	6216	0	144
74	6384	0	144
75	159	0	76
75	715	0	129
75	754	0	129
75	928	0	129
75	3080	0	140
75	4752	0	144
76	160	0	77
76	536	0	122
76	755	0	129
76	2178	0	136
76	4748	0	144
77	161	0	78
77	477	0	121
77	535	0	122
77	666	0	125
77	706	0	129
77	716	0	129
77	731	0	129
77	1548	0	136
77	1664	0	136
77	2084	0	136
77	2176	0	136
77	2480	0	136
77	2498	0	136
77	2644	0	136
77	2682	0	140
77	2686	0	140
77	3084	0	140
77	3744	0	140
77	4284	0	144
77	4620	0	144
77	5120	0	144
77	5128	0	144
77	5480	0	144
77	6728	0	144
77	6744	0	144
77	6916	0	144
78	167	0	79
78	429	0	121
78	435	0	121
78	576	0	122
78	652	0	125
78	709	0	129
78	727	0	129
78	864	0	129
78	930	0	129
78	969	0	129
78	1112	0	131
78	1486	0	136
78	1544	0	136
78	1552	0	136
78	1652	0	136
78	1806	0	136
78	2108	0	136
78	2384	0	136
78	2676	0	138
78	2680	0	140
78	2834	0	140
78	2996	0	140
78	3408	0	140
78	3936	0	144
78	3948	0	144
78	4704	0	144
78	5012	0	144
78	5332	0	144
78	5380	0	144
78	5992	0	144
78	6168	0	144
78	6668	0	144
78	6860	0	144
79	168	0	80
79	174	0	84
79	347	0	117
79	392	0	120
79	454	0	121
79	470	0	121
79	577	0	122
79	589	0	122
79	656	0	125
79	668	0	125
79	746	0	129
79	839	0	129
79	898	0	129
79	980	0	129
79	984	0	129
79	1470	0	136
79	1770	0	136
79	1820	0	136
79	2010	0	136
79	2156	0	136
79	3128	0	140
79	3440	0	140
79	3540	0	140
79	3864	0	144
79	4432	0	144
79	4844	0	144
79	4896	0	144
79	5300	0	144
79	5524	0	144
79	5548	0	144
79	6900	0	144
80	169	0	81
80	173	0	84
80	6948	0	144
80	6968	0	144
80	7072	0	144
80	7096	0	144
81	170	0	82
81	6952	0	144
81	6972	0	144
81	7104	0	144
82	171	0	83
82	669	0	125
82	4536	0	144
82	6964	0	144
82	7136	0	144
82	7152	0	144
83	172	0	84
83	7128	0	144
84	180	0	85
84	246	0	101
84	248	0	102
84	319	0	113
84	525	0	122
84	657	0	125
84	840	0	129
84	977	0	129
84	985	0	129
84	1220	0	135
84	1778	0	136
84	1970	0	136
84	2002	0	136
84	2124	0	136
84	2130	0	136
84	2446	0	136
84	2462	0	136
84	4076	0	144
84	4880	0	144
84	4900	0	144
84	5032	0	144
84	7352	0	144
85	181	0	86
85	237	0	98
85	276	0	108
85	361	0	119
85	1780	0	136
85	2028	0	136
85	2144	0	136
85	2246	0	136
85	2436	0	136
85	2466	0	136
85	2938	0	140
85	4440	0	144
85	5076	0	144
85	6048	0	144
85	6284	0	144
85	6560	0	144
86	182	0	87
86	245	0	101
86	257	0	104
86	259	0	104
86	364	0	119
86	675	0	125
86	1058	0	131
86	2742	0	140
86	2758	0	140
86	3168	0	140
86	4084	0	144
86	4196	0	144
86	4336	0	144
86	5036	0	144
86	5064	0	144
87	191	0	88
87	334	0	114
87	494	0	121
87	521	0	122
87	593	0	124
87	678	0	125
87	718	0	129
87	779	0	129
87	796	0	129
87	827	0	129
87	917	0	129
87	942	0	129
87	1196	0	135
87	1382	0	136
87	1406	0	136
87	1500	0	136
87	1658	0	136
87	1984	0	136
87	2046	0	136
87	2068	0	136
87	2074	0	136
87	2214	0	136
87	2232	0	136
87	2380	0	136
87	2798	0	140
87	3052	0	140
87	3180	0	140
87	3584	0	140
87	4104	0	144
87	4136	0	144
87	4964	0	144
87	5104	0	144
87	5136	0	144
87	5440	0	144
87	5696	0	144
87	5760	0	144
87	6028	0	144
87	6436	0	144
87	7392	0	144
88	197	0	89
88	231	0	96
88	437	0	121
88	465	0	121
88	573	0	122
88	575	0	122
88	583	0	122
88	617	0	124
88	699	0	129
88	752	0	129
88	866	0	129
88	870	0	129
88	892	0	129
88	895	0	129
88	958	0	129
88	1206	0	135
88	1370	0	136
88	1890	0	136
88	2038	0	136
88	2076	0	136
88	2170	0	136
88	2234	0	136
88	2254	0	136
88	2298	0	136
88	2312	0	136
88	2320	0	136
88	2428	0	136
88	2476	0	136
88	2648	0	136
88	2788	0	140
88	2806	0	140
88	2832	0	140
88	2880	0	140
88	2932	0	140
88	2952	0	140
88	3392	0	140
88	3536	0	140
88	4368	0	144
88	4600	0	144
88	4716	0	144
88	4960	0	144
88	5000	0	144
88	5280	0	144
88	5376	0	144
88	5484	0	144
88	5500	0	144
88	5560	0	144
88	5764	0	144
88	6328	0	144
88	6488	0	144
88	6716	0	144
89	200	0	90
89	329	0	114
89	350	0	117
89	438	0	121
89	458	0	121
89	646	0	125
89	663	0	125
89	720	0	129
89	813	0	129
89	854	0	129
89	894	0	129
89	988	0	129
89	1176	0	135
89	1240	0	135
89	1482	0	136
89	1670	0	136
89	1788	0	136
89	1798	0	136
89	1918	0	136
89	2408	0	136
89	2704	0	140
89	2926	0	140
89	3380	0	140
89	4344	0	144
89	5048	0	144
89	5100	0	144
89	5312	0	144
89	5432	0	144
89	5504	0	144
89	5620	0	144
89	6144	0	144
89	6156	0	144
89	6448	0	144
89	6544	0	144
89	7248	0	144
90	205	0	91
90	283	0	110
90	478	0	121
90	537	0	122
90	623	0	125
90	1144	0	131
90	1720	0	136
90	1880	0	136
90	2180	0	136
90	5972	0	144
90	6868	0	144
90	6876	0	144
91	208	0	92
91	365	0	119
91	393	0	120
91	403	0	121
91	762	0	129
91	788	0	129
91	791	0	129
91	800	0	129
91	884	0	129
91	982	0	129
91	1068	0	131
91	1126	0	131
91	1394	0	136
91	1690	0	136
91	1814	0	136
91	2050	0	136
91	2116	0	136
91	2696	0	140
91	2800	0	140
91	3120	0	140
91	3556	0	140
91	3576	0	140
91	3800	0	144
91	4140	0	144
91	4360	0	144
91	4676	0	144
91	4684	0	144
91	5080	0	144
91	6844	0	144
91	7232	0	144
92	209	0	93
92	236	0	98
92	363	0	119
92	532	0	122
92	1122	0	131
92	1748	0	136
92	1950	0	136
92	2024	0	136
92	2442	0	136
92	3968	0	144
92	4052	0	144
92	4080	0	144
92	4088	0	144
92	4192	0	144
92	4452	0	144
92	4460	0	144
92	5804	0	144
92	6308	0	144
92	6640	0	144
92	6852	0	144
92	7008	0	144
93	214	0	94
93	220	0	95
93	323	0	113
93	378	0	119
93	387	0	120
93	421	0	121
93	445	0	121
93	672	0	125
93	719	0	129
93	724	0	129
93	729	0	129
93	732	0	129
93	765	0	129
93	774	0	129
93	776	0	129
93	826	0	129
93	879	0	129
93	903	0	129
93	933	0	129
93	946	0	129
93	953	0	129
93	957	0	129
93	959	0	129
93	964	0	129
93	1232	0	135
93	1272	0	135
93	1466	0	136
93	1510	0	136
93	1724	0	136
93	1828	0	136
93	1912	0	136
93	2080	0	136
93	2268	0	136
93	2296	0	136
93	2368	0	136
93	2836	0	140
93	3068	0	140
93	3344	0	140
93	3476	0	140
93	3488	0	140
93	3740	0	140
93	3836	0	144
93	4504	0	144
93	4624	0	144
93	4848	0	144
93	4924	0	144
93	5468	0	144
93	6032	0	144
93	6200	0	144
93	6736	0	144
93	6836	0	144
93	7168	0	144
94	218	0	95
94	443	0	121
94	492	0	121
94	584	0	122
94	643	0	125
94	759	0	129
94	795	0	129
94	905	0	129
94	956	0	129
94	1368	0	136
94	1432	0	136
94	1476	0	136
94	1518	0	136
94	2018	0	136
94	2070	0	136
94	2088	0	136
94	2188	0	136
94	2212	0	136
94	2404	0	136
94	2578	0	136
94	2890	0	140
94	2920	0	140
94	3008	0	140
94	3056	0	140
94	3140	0	140
94	3312	0	140
94	3464	0	140
94	3528	0	140
94	4296	0	144
94	4888	0	144
94	5116	0	144
94	5492	0	144
94	6056	0	144
94	6112	0	144
94	6672	0	144
94	6820	0	144
95	226	0	96
95	333	0	114
95	353	0	118
95	356	0	118
95	367	0	119
95	395	0	120
95	408	0	121
95	587	0	122
95	615	0	124
95	641	0	125
95	673	0	125
95	697	0	129
95	725	0	129
95	798	0	129
95	920	0	129
95	1130	0	131
95	1320	0	136
95	1426	0	136
95	1576	0	136
95	1704	0	136
95	1726	0	136
95	1896	0	136
95	2252	0	136
95	2280	0	136
95	2336	0	136
95	2540	0	136
95	2576	0	136
95	2580	0	136
95	2616	0	136
95	2906	0	140
95	3752	0	140
95	3768	0	140
95	4112	0	144
95	4264	0	144
95	4388	0	144
95	4820	0	144
95	5112	0	144
95	5288	0	144
95	5356	0	144
95	5660	0	144
95	6184	0	144
95	6464	0	144
96	234	0	97
96	402	0	121
96	405	0	121
96	644	0	125
96	674	0	125
96	838	0	129
96	872	0	129
96	955	0	129
96	1050	0	131
96	1108	0	131
96	1562	0	136
96	1818	0	136
96	1898	0	136
96	2014	0	136
96	2114	0	136
96	3112	0	140
96	3152	0	140
96	3284	0	140
96	3548	0	140
96	3892	0	144
96	4340	0	144
96	4556	0	144
96	4608	0	144
96	4780	0	144
96	5052	0	144
96	5068	0	144
96	5564	0	144
96	5664	0	144
96	5756	0	144
96	6020	0	144
96	6052	0	144
96	6280	0	144
96	6324	0	144
96	6412	0	144
96	6428	0	144
96	6540	0	144
96	7384	0	144
97	235	0	98
97	241	0	98
97	448	0	121
97	463	0	121
97	1236	0	135
97	2128	0	136
97	2308	0	136
97	2628	0	136
97	2698	0	140
97	2750	0	140
97	2958	0	140
97	3420	0	140
97	4060	0	144
97	4664	0	144
97	5544	0	144
98	242	0	99
98	275	0	108
98	362	0	119
98	807	0	129
98	1120	0	131
98	2126	0	136
98	2134	0	136
98	2148	0	136
98	2152	0	136
98	2444	0	136
98	2448	0	136
98	2456	0	136
98	2720	0	140
98	2764	0	140
98	2962	0	140
98	4444	0	144
98	5540	0	144
98	6304	0	144
98	7432	0	144
99	243	0	100
99	804	0	129
99	1358	0	136
99	1958	0	136
99	2132	0	136
99	2138	0	136
99	2438	0	136
99	2722	0	140
99	2730	0	140
99	2760	0	140
99	4092	0	144
99	4156	0	144
99	6300	0	144
99	7416	0	144
100	244	0	101
100	1956	0	136
100	2452	0	136
100	2766	0	140
100	4044	0	144
100	4160	0	144
100	7440	0	144
101	247	0	102
101	255	0	104
101	360	0	119
101	658	0	125
101	789	0	129
101	802	0	129
101	1268	0	135
101	2026	0	136
101	2140	0	136
101	2154	0	136
101	2244	0	136
101	2306	0	136
101	2716	0	140
101	2728	0	140
101	2960	0	140
101	5536	0	144
101	7408	0	144
102	250	0	103
102	686	0	125
102	688	0	126
102	693	0	129
102	822	0	129
102	1774	0	136
102	2700	0	140
102	3976	0	144
103	254	0	104
103	256	0	104
103	1056	0	131
103	1952	0	136
103	2136	0	136
103	2450	0	136
103	2454	0	136
103	2458	0	136
103	2746	0	140
103	2762	0	140
103	2768	0	140
103	3164	0	140
104	260	0	105
104	524	0	122
104	531	0	122
104	803	0	129
104	806	0	129
104	841	0	129
104	1118	0	131
104	1962	0	136
104	2718	0	140
104	2744	0	140
104	2770	0	140
104	2966	0	140
104	3160	0	140
104	3172	0	140
104	4096	0	144
104	4152	0	144
104	4584	0	144
105	270	0	106
105	416	0	121
105	457	0	121
105	640	0	125
105	760	0	129
105	784	0	129
105	818	0	129
105	861	0	129
105	935	0	129
105	1046	0	131
105	1092	0	131
105	1676	0	136
105	1790	0	136
105	1810	0	136
105	1848	0	136
105	2398	0	136
105	2544	0	136
105	2826	0	140
105	2852	0	140
105	4256	0	144
105	5780	0	144
105	6004	0	144
105	6100	0	144
105	6692	0	144
105	6712	0	144
106	273	0	107
106	388	0	120
106	469	0	121
106	527	0	122
106	530	0	122
106	738	0	129
106	793	0	129
106	842	0	129
106	960	0	129
106	974	0	129
106	1062	0	131
106	1192	0	135
106	1228	0	135
106	1234	0	135
106	1362	0	136
106	1388	0	136
106	1796	0	136
106	1868	0	136
106	1948	0	136
106	2078	0	136
106	2160	0	136
106	2228	0	136
106	2270	0	136
106	2356	0	136
106	2606	0	136
106	2710	0	140
106	2848	0	140
106	2970	0	140
106	3156	0	140
106	3428	0	140
106	4072	0	144
106	4580	0	144
106	4920	0	144
106	5320	0	144
106	5344	0	144
106	5796	0	144
106	6316	0	144
106	6680	0	144
106	6840	0	144
107	274	0	108
107	1954	0	136
107	1960	0	136
107	1964	0	136
107	2142	0	136
107	2150	0	136
107	2304	0	136
107	2350	0	136
107	2440	0	136
107	2464	0	136
107	2754	0	140
107	2774	0	140
107	3560	0	140
107	4056	0	144
107	4164	0	144
107	4448	0	144
107	7424	0	144
108	279	0	109
108	336	0	114
108	369	0	119
108	375	0	119
108	422	0	121
108	466	0	121
108	468	0	121
108	471	0	121
108	563	0	122
108	649	0	125
108	744	0	129
108	750	0	129
108	832	0	129
108	885	0	129
108	1116	0	131
108	1156	0	131
108	1226	0	135
108	1256	0	135
108	1392	0	136
108	1852	0	136
108	1914	0	136
108	2054	0	136
108	2090	0	136
108	2260	0	136
108	2346	0	136
108	2472	0	136
108	2868	0	140
108	3100	0	140
108	3316	0	140
108	3416	0	140
108	3448	0	140
108	4332	0	144
108	4668	0	144
108	4912	0	144
108	6036	0	144
108	6320	0	144
108	6616	0	144
109	281	0	110
109	324	0	113
109	758	0	129
109	1146	0	131
109	1430	0	136
109	1734	0	136
109	2106	0	136
109	2326	0	136
109	2330	0	136
109	2364	0	136
109	2496	0	136
109	3348	0	140
109	5968	0	144
109	6724	0	144
109	6928	0	144
110	296	0	111
110	505	0	121
110	610	0	124
110	613	0	124
110	1336	0	136
110	1436	0	136
110	1450	0	136
110	1458	0	136
110	1588	0	136
110	1612	0	136
110	2594	0	136
110	3372	0	140
110	4416	0	144
110	5212	0	144
110	5264	0	144
110	6088	0	144
111	299	0	112
111	611	0	124
111	1024	0	129
111	1454	0	136
111	3624	0	140
111	5944	0	144
111	6228	0	144
112	300	0	113
112	714	0	129
112	923	0	129
112	3628	0	140
112	5860	0	144
112	6232	0	144
113	325	0	114
113	343	0	116
113	671	0	125
113	708	0	129
113	947	0	129
113	5988	0	144
113	6896	0	144
113	6940	0	144
114	337	0	115
114	354	0	118
114	407	0	121
114	488	0	121
114	544	0	122
114	606	0	124
114	810	0	129
114	815	0	129
114	851	0	129
114	912	0	129
114	918	0	129
114	962	0	129
114	1114	0	131
114	1162	0	131
114	1172	0	134
114	1536	0	136
114	1766	0	136
114	2184	0	136
114	2372	0	136
114	2538	0	136
114	3468	0	140
114	3684	0	140
114	3708	0	140
114	3760	0	140
114	3780	0	141
114	3832	0	144
114	4428	0	144
114	4564	0	144
114	4860	0	144
114	5276	0	144
114	5360	0	144
114	5420	0	144
114	5632	0	144
114	5816	0	144
114	6000	0	144
114	6132	0	144
114	6368	0	144
114	6416	0	144
114	6620	0	144
114	6632	0	144
114	6788	0	144
114	6828	0	144
115	341	0	116
115	423	0	121
115	540	0	122
115	562	0	122
115	602	0	124
115	681	0	125
115	809	0	129
115	856	0	129
115	891	0	129
115	936	0	129
115	1048	0	131
115	1100	0	131
115	1106	0	131
115	1174	0	135
115	1398	0	136
115	1526	0	136
115	1978	0	136
115	2008	0	136
115	2392	0	136
115	2630	0	136
115	2780	0	140
115	3092	0	140
115	3424	0	140
115	3568	0	140
115	4300	0	144
115	4644	0	144
115	4736	0	144
115	4804	0	144
115	5720	0	144
115	6040	0	144
115	6344	0	144
115	6476	0	144
115	6824	0	144
115	7336	0	144
116	344	0	117
116	428	0	121
116	481	0	121
116	948	0	129
116	1078	0	131
116	1138	0	131
116	1142	0	131
116	1662	0	136
116	1878	0	136
116	2034	0	136
116	2810	0	140
116	2864	0	140
116	2910	0	140
116	3012	0	140
116	3356	0	140
116	4288	0	144
116	4864	0	144
116	4928	0	144
116	4952	0	144
116	5328	0	144
116	5976	0	144
116	6260	0	144
116	6748	0	144
116	7208	0	144
117	352	0	118
117	355	0	118
117	411	0	121
117	639	0	125
117	684	0	125
117	701	0	129
117	860	0	129
117	1460	0	136
117	1492	0	136
117	1986	0	136
117	2554	0	136
117	3032	0	140
117	3376	0	140
117	3496	0	140
117	3504	0	140
117	3680	0	140
117	5268	0	144
117	5788	0	144
117	5820	0	144
117	6072	0	144
117	6792	0	144
118	359	0	119
118	519	0	122
118	523	0	122
118	801	0	129
118	1060	0	131
118	2022	0	136
118	2460	0	136
118	2734	0	140
118	2936	0	140
118	3572	0	140
118	3964	0	144
118	4064	0	144
118	4168	0	144
118	5348	0	144
118	6288	0	144
118	6556	0	144
118	6652	0	144
118	7016	0	144
119	384	0	120
119	753	0	129
119	767	0	129
119	847	0	129
119	950	0	129
119	1212	0	135
119	1496	0	136
119	2642	0	136
119	3308	0	140
119	4764	0	144
119	4868	0	144
119	5404	0	144
119	6116	0	144
119	6504	0	144
119	6996	0	144
119	7184	0	144
120	399	0	121
120	430	0	121
120	619	0	124
120	625	0	125
120	929	0	129
120	1556	0	136
120	2206	0	136
120	2316	0	136
120	2494	0	136
120	2500	0	136
120	3076	0	140
120	6208	0	144
120	6864	0	144
120	6872	0	144
120	6920	0	144
120	6932	0	144
121	512	0	122
121	614	0	124
121	1280	0	135
121	1322	0	136
121	1328	0	136
121	1608	0	136
121	2670	0	136
121	3664	0	140
121	4260	0	144
121	4348	0	144
121	5156	0	144
121	5196	0	144
121	5836	0	144
121	6696	0	144
122	590	0	123
122	670	0	125
122	757	0	129
122	775	0	129
122	2208	0	136
122	2328	0	136
122	2362	0	136
122	2366	0	136
122	6924	0	144
122	6980	0	144
122	7064	0	144
122	7160	0	144
123	591	0	124
123	730	0	129
123	865	0	129
123	1478	0	136
123	1512	0	136
123	1546	0	136
123	2036	0	136
123	2912	0	140
123	3004	0	140
123	3072	0	140
123	6204	0	144
123	6880	0	144
123	6984	0	144
123	7056	0	144
124	621	0	125
124	825	0	129
124	949	0	129
124	1718	0	136
124	2318	0	136
124	2502	0	136
124	2882	0	140
124	3016	0	140
124	5980	0	144
124	6732	0	144
124	7048	0	144
125	687	0	126
126	689	0	127
126	691	0	128
126	3980	0	144
126	3996	0	144
126	4004	0	144
127	690	0	128
127	4000	0	144
127	4012	0	144
127	4024	0	144
128	692	0	129
128	4016	0	144
129	3596	0	140
130	3984	0	144
131	3988	0	144
131	4032	0	144
132	3992	0	144
132	4008	0	144
132	4020	0	144
132	4028	0	144
132	4036	0	144
133	4040	0	144
134	5864	0	144
135	5868	0	144
136	6944	0	144
136	6976	0	144
136	7080	0	144
136	7112	0	144
137	6956	0	144
138	6960	0	144
138	7120	0	144
138	7144	0	144
139	7088	0	144
140	7448	0	145

