version 3
run General-46-20250904-14:13:13-15276
attr configname General
attr datetime 20250904-14:13:13
attr datetimef 20250904-141313
attr experiment General
attr inifile omnetpp.ini
attr iterationvars ""
attr iterationvarsd ""
attr iterationvarsf ""
attr measurement ""
attr network TaxiNetwork
attr processid 15276
attr repetition 46
attr replication #46
attr resultdir results
attr runnumber 46
attr seedset 46
config network TaxiNetwork
config seed-set 46
config num-rngs 1
config sim-time-limit 10s
config repeat 500
config *.numWalkers 1
config *.enableDuplication true
config *.rc 700
config **.node[0].xCor 2933
config **.node[0].yCor 2747
config **.node[1].xCor 2919
config **.node[1].yCor 2817
config **.node[2].xCor 2910
config **.node[2].yCor 2861
config **.node[3].xCor 2429
config **.node[3].yCor 2851
config **.node[4].xCor 2908
config **.node[4].yCor 2714
config **.node[5].xCor 2606
config **.node[5].yCor 2722
config **.node[6].xCor 2575
config **.node[6].yCor 2753
config **.node[7].xCor 2654
config **.node[7].yCor 2513
config **.node[8].xCor 2773
config **.node[8].yCor 2580
config **.node[9].xCor 3043
config **.node[9].yCor 2780
config **.node[10].xCor 3020
config **.node[10].yCor 2813
config **.node[11].xCor 2599
config **.node[11].yCor 2300
config **.node[12].xCor 2917
config **.node[12].yCor 2698
config **.node[13].xCor 2625
config **.node[13].yCor 2641
config **.node[14].xCor 2604
config **.node[14].yCor 2790
config **.node[15].xCor 2786
config **.node[15].yCor 3082
config **.node[16].xCor 2603
config **.node[16].yCor 2802
config **.node[17].xCor 2637
config **.node[17].yCor 2869
config **.node[18].xCor 2675
config **.node[18].yCor 2955
config **.node[19].xCor 2845
config **.node[19].yCor 2937
config **.node[20].xCor 2860
config **.node[20].yCor 2888
config **.node[21].xCor 2843
config **.node[21].yCor 4158
config **.node[22].xCor 2852
config **.node[22].yCor 4017
config **.node[23].xCor 2892
config **.node[23].yCor 4961
config **.node[24].xCor 2313
config **.node[24].yCor 3993
config **.node[25].xCor 2891
config **.node[25].yCor 4959
config **.node[26].xCor 2370
config **.node[26].yCor 4050
config **.node[27].xCor 2788
config **.node[27].yCor 3958
config **.node[28].xCor 2819
config **.node[28].yCor 4428
config **.node[29].xCor 2790
config **.node[29].yCor 3761
config **.node[30].xCor 2809
config **.node[30].yCor 2908
config **.node[31].xCor 2919
config **.node[31].yCor 3575
config **.node[32].xCor 2946
config **.node[32].yCor 3466
config **.node[33].xCor 2911
config **.node[33].yCor 3453
config **.node[34].xCor 2370
config **.node[34].yCor 3656
config **.node[35].xCor 2438
config **.node[35].yCor 3738
config **.node[36].xCor 2737
config **.node[36].yCor 3570
config **.node[37].xCor 2921
config **.node[37].yCor 3698
config **.node[38].xCor 2907
config **.node[38].yCor 5197
config **.node[39].xCor 2860
config **.node[39].yCor 3852
config **.node[40].xCor 2927
config **.node[40].yCor 3684
config **.node[41].xCor 3023
config **.node[41].yCor 5313
config **.node[42].xCor 3220
config **.node[42].yCor 5811
config **.node[43].xCor 3432
config **.node[43].yCor 5715
config **.node[44].xCor 2754
config **.node[44].yCor 2463
config **.node[45].xCor 2646
config **.node[45].yCor 2673
config **.node[46].xCor 3051
config **.node[46].yCor 2792
config **.node[47].xCor 1666
config **.node[47].yCor 3697
config **.node[48].xCor 1662
config **.node[48].yCor 3694
config **.node[49].xCor 1664
config **.node[49].yCor 3667
config **.node[50].xCor 1660
config **.node[50].yCor 3664
config **.node[51].xCor 1710
config **.node[51].yCor 3573
config **.node[52].xCor 2082
config **.node[52].yCor 2650
config **.node[53].xCor 2086
config **.node[53].yCor 2657
config **.node[54].xCor 2257
config **.node[54].yCor 3232
config **.node[55].xCor 2258
config **.node[55].yCor 3225
config **.node[56].xCor 1926
config **.node[56].yCor 2570
config **.node[57].xCor 1926
config **.node[57].yCor 2576
config **.node[58].xCor 2104
config **.node[58].yCor 1758
config **.node[59].xCor 1957
config **.node[59].yCor 1826
config **.node[60].xCor 3473
config **.node[60].yCor 1523
config **.node[61].xCor 3335
config **.node[61].yCor 1726
config **.node[62].xCor 3478
config **.node[62].yCor 1517
config **.node[63].xCor 3386
config **.node[63].yCor 2119
config **.node[64].xCor 3474
config **.node[64].yCor 1762
config **.node[65].xCor 3797
config **.node[65].yCor 2099
config **.node[66].xCor 3642
config **.node[66].yCor 2136
config **.node[67].xCor 3481
config **.node[67].yCor 2334
config **.node[68].xCor 3088
config **.node[68].yCor 1505
config **.node[69].xCor 3037
config **.node[69].yCor 1693
config **.node[70].xCor 3026
config **.node[70].yCor 1700
config **.node[71].xCor 3019
config **.node[71].yCor 669
config **.node[72].xCor 3513
config **.node[72].yCor 1358
config **.node[73].xCor 3545
config **.node[73].yCor 1230
config **.node[74].xCor 4228
config **.node[74].yCor 4220
config **.node[75].xCor 3379
config **.node[75].yCor 1207
config **.node[76].xCor 3596
config **.node[76].yCor 963
config **.node[77].xCor 3637
config **.node[77].yCor 1188
config **.node[78].xCor 3759
config **.node[78].yCor 1030
config **.node[79].xCor 2918
config **.node[79].yCor 1455
config **.node[80].xCor 2711
config **.node[80].yCor 1297
config **.node[81].xCor 439
config **.node[81].yCor 1623
config **.node[82].xCor 2857
config **.node[82].yCor 3581
config **.node[83].xCor 2858
config **.node[83].yCor 3584
config **.node[84].xCor 2999
config **.node[84].yCor 2636
config **.node[85].xCor 2905
config **.node[85].yCor 2778
config **.node[86].xCor 2653
config **.node[86].yCor 2845
config **.node[87].xCor 2864
config **.node[87].yCor 2836
config **.node[88].xCor 2426
config **.node[88].yCor 2892
config **.node[89].xCor 2964
config **.node[89].yCor 2804
config **.node[90].xCor 2586
config **.node[90].yCor 3135
config **.node[91].xCor 2864
config **.node[91].yCor 2980
config **.node[92].xCor 2527
config **.node[92].yCor 3219
config **.node[93].xCor 2863
config **.node[93].yCor 3142
config **.node[94].xCor 2485
config **.node[94].yCor 3269
config **.node[95].xCor 2653
config **.node[95].yCor 1065
config **.node[96].xCor 4062
config **.node[96].yCor 400
config **.node[97].xCor 5762
config **.node[97].yCor 3023
config **.node[98].xCor 1414
config **.node[98].yCor 3461
config **.node[99].xCor 2911
config **.node[99].yCor 1737
config **.node[100].xCor 2595
config **.node[100].yCor 2299
config **.node[101].xCor 2702
config **.node[101].yCor 3419
config **.node[102].xCor 2813
config **.node[102].yCor 3307
config **.node[103].xCor 2638
config **.node[103].yCor 2258
config **.node[104].xCor 2590
config **.node[104].yCor 3125
config **.node[105].xCor 1856
config **.node[105].yCor 2990
config **.node[106].xCor 1894
config **.node[106].yCor 2239
config **.node[107].xCor 383
config **.node[107].yCor 1251
config **.node[108].xCor 3447
config **.node[108].yCor 5489
config **.node[109].xCor 3450
config **.node[109].yCor 5697
config **.node[110].xCor 2719
config **.node[110].yCor 1920
config **.node[111].xCor 2085
config **.node[111].yCor 2389
config **.node[112].xCor 1910
config **.node[112].yCor 2548
config **.node[113].xCor 2069
config **.node[113].yCor 2050
config **.node[114].xCor 2184
config **.node[114].yCor 2209
config **.node[115].xCor 2278
config **.node[115].yCor 2390
config **.node[116].xCor 2249
config **.node[116].yCor 2299
config **.node[117].xCor 2356
config **.node[117].yCor 2303
config **.node[118].xCor 2192
config **.node[118].yCor 2475
config **.node[119].xCor 1720
config **.node[119].yCor 2911
config **.node[120].xCor 2400
config **.node[120].yCor 2887
config **.node[121].xCor 3344
config **.node[121].yCor 1890
config **.node[122].xCor 3136
config **.node[122].yCor 2418
config **.node[123].xCor 3243
config **.node[123].yCor 2525
config **.node[124].xCor 2396
config **.node[124].yCor 1267
config **.node[125].xCor 467
config **.node[125].yCor 1875
config **.node[126].xCor 3506
config **.node[126].yCor 1221
config **.node[127].xCor 1034
config **.node[127].yCor 1474
config **.node[128].xCor 2908
config **.node[128].yCor 1784
config **.node[129].xCor 2876
config **.node[129].yCor 1761
config **.node[130].xCor 2849
config **.node[130].yCor 1795
config **.node[131].xCor 3029
config **.node[131].yCor 1859
config **.node[132].xCor 2924
config **.node[132].yCor 1848
config **.node[133].xCor 3493
config **.node[133].yCor 1559
config **.node[134].xCor 2760
config **.node[134].yCor 1761
config **.node[135].xCor 1644
config **.node[135].yCor 3755
config **.node[136].xCor 1463
config **.node[136].yCor 3432
config **.node[137].xCor 2595
config **.node[137].yCor 2849
config **.node[138].xCor 2581
config **.node[138].yCor 2867
config **.node[139].xCor 2524
config **.node[139].yCor 2911
config **.node[140].xCor 2570
config **.node[140].yCor 2924
config **.node[141].xCor 2676
config **.node[141].yCor 2890
config **.node[142].xCor 2666
config **.node[142].yCor 2876
config **.node[143].xCor 3735
config **.node[143].yCor 1726
config **.node[144].xCor 1637
config **.node[144].yCor 3438

vector 0 TaxiNetwork.node[5] visitedPerTimestep ETV
vector 1 TaxiNetwork.node[94] visitedPerTimestep ETV
vector 2 TaxiNetwork.node[33] visitedPerTimestep ETV
vector 3 TaxiNetwork.node[37] visitedPerTimestep ETV
vector 4 TaxiNetwork.node[35] visitedPerTimestep ETV
vector 5 TaxiNetwork.node[82] visitedPerTimestep ETV
vector 6 TaxiNetwork.node[31] visitedPerTimestep ETV
vector 7 TaxiNetwork.node[19] visitedPerTimestep ETV
vector 8 TaxiNetwork.node[8] visitedPerTimestep ETV
vector 9 TaxiNetwork.node[90] visitedPerTimestep ETV
vector 10 TaxiNetwork.node[45] visitedPerTimestep ETV
vector 11 TaxiNetwork.node[140] visitedPerTimestep ETV
vector 12 TaxiNetwork.node[32] visitedPerTimestep ETV
vector 13 TaxiNetwork.node[101] visitedPerTimestep ETV
vector 14 TaxiNetwork.node[29] visitedPerTimestep ETV
vector 15 TaxiNetwork.node[22] visitedPerTimestep ETV
vector 16 TaxiNetwork.node[26] visitedPerTimestep ETV
vector 17 TaxiNetwork.node[24] visitedPerTimestep ETV
vector 18 TaxiNetwork.node[34] visitedPerTimestep ETV
vector 19 TaxiNetwork.node[102] visitedPerTimestep ETV
vector 20 TaxiNetwork.node[10] visitedPerTimestep ETV
vector 21 TaxiNetwork.node[2] visitedPerTimestep ETV
vector 22 TaxiNetwork.node[122] visitedPerTimestep ETV
vector 23 TaxiNetwork.node[137] visitedPerTimestep ETV
vector 24 TaxiNetwork.node[13] visitedPerTimestep ETV
vector 25 TaxiNetwork.node[1] visitedPerTimestep ETV
vector 26 TaxiNetwork.node[86] visitedPerTimestep ETV
vector 27 TaxiNetwork.node[17] visitedPerTimestep ETV
vector 28 TaxiNetwork.node[54] visitedPerTimestep ETV
vector 29 TaxiNetwork.node[16] visitedPerTimestep ETV
vector 30 TaxiNetwork.node[18] visitedPerTimestep ETV
vector 31 TaxiNetwork.node[85] visitedPerTimestep ETV
vector 32 TaxiNetwork.node[0] visitedPerTimestep ETV
vector 33 TaxiNetwork.node[7] visitedPerTimestep ETV
vector 34 TaxiNetwork.node[84] visitedPerTimestep ETV
vector 35 TaxiNetwork.node[9] visitedPerTimestep ETV
vector 36 TaxiNetwork.node[115] visitedPerTimestep ETV
vector 37 TaxiNetwork.node[117] visitedPerTimestep ETV
vector 38 TaxiNetwork.node[89] visitedPerTimestep ETV
vector 39 TaxiNetwork.node[92] visitedPerTimestep ETV
vector 40 TaxiNetwork.node[139] visitedPerTimestep ETV
vector 41 TaxiNetwork.node[14] visitedPerTimestep ETV
vector 42 TaxiNetwork.node[138] visitedPerTimestep ETV
vector 43 TaxiNetwork.node[93] visitedPerTimestep ETV
vector 44 TaxiNetwork.node[55] visitedPerTimestep ETV
vector 45 TaxiNetwork.node[91] visitedPerTimestep ETV
vector 46 TaxiNetwork.node[100] visitedPerTimestep ETV
vector 47 TaxiNetwork.node[53] visitedPerTimestep ETV
vector 48 TaxiNetwork.node[3] visitedPerTimestep ETV
vector 49 TaxiNetwork.node[118] visitedPerTimestep ETV
vector 50 TaxiNetwork.node[6] visitedPerTimestep ETV
vector 51 TaxiNetwork.node[114] visitedPerTimestep ETV
vector 52 TaxiNetwork.node[110] visitedPerTimestep ETV
vector 53 TaxiNetwork.node[134] visitedPerTimestep ETV
vector 54 TaxiNetwork.node[68] visitedPerTimestep ETV
vector 55 TaxiNetwork.node[73] visitedPerTimestep ETV
vector 56 TaxiNetwork.node[80] visitedPerTimestep ETV
vector 57 TaxiNetwork.node[132] visitedPerTimestep ETV
vector 58 TaxiNetwork.node[127] visitedPerTimestep ETV
vector 59 TaxiNetwork.node[128] visitedPerTimestep ETV
vector 60 TaxiNetwork.node[44] visitedPerTimestep ETV
vector 61 TaxiNetwork.node[87] visitedPerTimestep ETV
vector 62 TaxiNetwork.node[27] visitedPerTimestep ETV
vector 63 TaxiNetwork.node[30] visitedPerTimestep ETV
vector 64 TaxiNetwork.node[15] visitedPerTimestep ETV
vector 65 TaxiNetwork.node[120] visitedPerTimestep ETV
vector 66 TaxiNetwork.node[11] visitedPerTimestep ETV
vector 67 TaxiNetwork.node[123] visitedPerTimestep ETV
vector 68 TaxiNetwork.node[121] visitedPerTimestep ETV
vector 69 TaxiNetwork.node[88] visitedPerTimestep ETV
vector 70 TaxiNetwork.node[103] visitedPerTimestep ETV
vector 71 TaxiNetwork.node[129] visitedPerTimestep ETV
vector 72 TaxiNetwork.node[60] visitedPerTimestep ETV
vector 73 TaxiNetwork.node[63] visitedPerTimestep ETV
vector 74 TaxiNetwork.node[69] visitedPerTimestep ETV
vector 75 TaxiNetwork.node[20] visitedPerTimestep ETV
vector 76 TaxiNetwork.node[74] visitedPerTimestep ETV
vector 77 TaxiNetwork.node[83] visitedPerTimestep ETV
vector 78 TaxiNetwork.node[52] visitedPerTimestep ETV
vector 79 TaxiNetwork.node[119] visitedPerTimestep ETV
vector 80 TaxiNetwork.node[105] visitedPerTimestep ETV
vector 81 TaxiNetwork.node[98] visitedPerTimestep ETV
vector 82 TaxiNetwork.node[144] visitedPerTimestep ETV
vector 83 TaxiNetwork.node[50] visitedPerTimestep ETV
vector 84 TaxiNetwork.node[135] visitedPerTimestep ETV
vector 85 TaxiNetwork.node[48] visitedPerTimestep ETV
vector 86 TaxiNetwork.node[136] visitedPerTimestep ETV
vector 87 TaxiNetwork.node[47] visitedPerTimestep ETV
vector 88 TaxiNetwork.node[49] visitedPerTimestep ETV
vector 89 TaxiNetwork.node[51] visitedPerTimestep ETV
vector 90 TaxiNetwork.node[141] visitedPerTimestep ETV
vector 91 TaxiNetwork.node[46] visitedPerTimestep ETV
vector 92 TaxiNetwork.node[116] visitedPerTimestep ETV
vector 93 TaxiNetwork.node[104] visitedPerTimestep ETV
vector 94 TaxiNetwork.node[40] visitedPerTimestep ETV
vector 95 TaxiNetwork.node[12] visitedPerTimestep ETV
vector 96 TaxiNetwork.node[4] visitedPerTimestep ETV
vector 97 TaxiNetwork.node[126] visitedPerTimestep ETV
vector 98 TaxiNetwork.node[79] visitedPerTimestep ETV
vector 99 TaxiNetwork.node[62] visitedPerTimestep ETV
vector 100 TaxiNetwork.node[99] visitedPerTimestep ETV
vector 101 TaxiNetwork.node[70] visitedPerTimestep ETV
vector 102 TaxiNetwork.node[75] visitedPerTimestep ETV
vector 103 TaxiNetwork.node[111] visitedPerTimestep ETV
vector 104 TaxiNetwork.node[57] visitedPerTimestep ETV
vector 105 TaxiNetwork.node[106] visitedPerTimestep ETV
vector 106 TaxiNetwork.node[39] visitedPerTimestep ETV
vector 107 TaxiNetwork.node[21] visitedPerTimestep ETV
vector 108 TaxiNetwork.node[36] visitedPerTimestep ETV
vector 109 TaxiNetwork.node[130] visitedPerTimestep ETV
vector 110 TaxiNetwork.node[113] visitedPerTimestep ETV
vector 111 TaxiNetwork.node[59] visitedPerTimestep ETV
vector 112 TaxiNetwork.node[56] visitedPerTimestep ETV
vector 113 TaxiNetwork.node[142] visitedPerTimestep ETV
vector 114 TaxiNetwork.node[131] visitedPerTimestep ETV
vector 115 TaxiNetwork.node[64] visitedPerTimestep ETV
vector 116 TaxiNetwork.node[71] visitedPerTimestep ETV
vector 117 TaxiNetwork.node[133] visitedPerTimestep ETV
vector 118 TaxiNetwork.node[58] visitedPerTimestep ETV
vector 119 TaxiNetwork.node[61] visitedPerTimestep ETV
vector 120 TaxiNetwork.node[66] visitedPerTimestep ETV
vector 121 TaxiNetwork.node[124] visitedPerTimestep ETV
vector 122 TaxiNetwork.node[72] visitedPerTimestep ETV
vector 123 TaxiNetwork.node[143] visitedPerTimestep ETV
vector 124 TaxiNetwork.node[76] visitedPerTimestep ETV
vector 125 TaxiNetwork.node[77] visitedPerTimestep ETV
vector 126 TaxiNetwork.node[65] visitedPerTimestep ETV
vector 127 TaxiNetwork.node[95] visitedPerTimestep ETV
vector 128 TaxiNetwork.node[67] visitedPerTimestep ETV
vector 129 TaxiNetwork.node[112] visitedPerTimestep ETV
vector 130 TaxiNetwork.node[78] visitedPerTimestep ETV
vector 131 TaxiNetwork.node[96] visitedPerTimestep ETV
vector 132 TaxiNetwork.node[28] visitedPerTimestep ETV
vector 133 TaxiNetwork.node[23] visitedPerTimestep ETV
vector 134 TaxiNetwork.node[25] visitedPerTimestep ETV
vector 135 TaxiNetwork.node[38] visitedPerTimestep ETV
vector 136 TaxiNetwork.node[108] visitedPerTimestep ETV
vector 137 TaxiNetwork.node[42] visitedPerTimestep ETV
vector 138 TaxiNetwork.node[41] visitedPerTimestep ETV
vector 139 TaxiNetwork.node[109] visitedPerTimestep ETV
vector 140 TaxiNetwork.node[43] visitedPerTimestep ETV
vector 141 TaxiNetwork.node[97] visitedPerTimestep ETV
vector 142 TaxiNetwork.node[81] visitedPerTimestep ETV
vector 143 TaxiNetwork.node[125] visitedPerTimestep ETV
vector 144 TaxiNetwork.node[107] visitedPerTimestep ETV
0	1	0	1
0	37	0	31
0	78	0	51
0	107	0	63
0	120	0	66
0	446	0	114
0	487	0	119
0	649	0	127
0	670	0	127
0	735	0	128
0	826	0	130
0	855	0	130
0	909	0	130
0	931	0	130
0	1170	0	131
0	1214	0	131
0	1464	0	131
0	1698	0	131
0	1846	0	131
1	2	0	2
1	110	0	64
1	219	0	90
1	274	0	97
1	364	0	109
1	496	0	119
1	613	0	127
1	868	0	130
1	905	0	130
1	1254	0	131
1	1264	0	131
1	1648	0	131
1	1678	0	131
1	1690	0	131
1	2276	0	141
2	3	0	3
2	43	0	31
2	93	0	61
2	101	0	63
2	113	0	65
2	228	0	91
2	349	0	109
2	614	0	127
2	955	0	130
2	958	0	130
2	964	0	130
2	1272	0	131
2	2254	0	141
2	2280	0	141
2	2516	0	142
3	4	0	4
3	133	0	66
3	353	0	109
3	785	0	129
3	904	0	130
3	914	0	130
3	1268	0	131
3	1414	0	131
3	1680	0	131
3	1688	0	131
3	2472	0	141
4	5	0	5
4	44	0	31
4	97	0	62
4	959	0	130
4	970	0	130
4	1256	0	131
4	1266	0	131
4	1418	0	131
4	1664	0	131
4	2260	0	141
4	2278	0	141
5	6	0	6
5	132	0	66
5	252	0	95
5	401	0	111
5	572	0	127
5	759	0	129
5	836	0	130
5	903	0	130
5	1420	0	131
5	2514	0	142
6	7	0	7
6	98	0	62
6	109	0	64
6	578	0	127
6	913	0	130
6	1684	0	131
7	8	0	8
7	48	0	33
7	144	0	66
7	152	0	66
7	157	0	69
7	320	0	103
7	394	0	111
7	453	0	114
7	837	0	130
7	862	0	130
7	1050	0	130
7	1484	0	131
7	1498	0	131
7	1550	0	131
7	1564	0	131
7	1656	0	131
7	1784	0	131
7	2002	0	132
8	9	0	9
8	26	0	24
8	233	0	91
8	237	0	91
8	245	0	92
8	268	0	96
8	585	0	127
8	643	0	127
8	666	0	127
8	719	0	128
8	851	0	130
8	935	0	130
8	1280	0	131
8	1554	0	131
8	1572	0	131
8	2018	0	132
8	2374	0	141
8	2482	0	141
9	10	0	10
9	77	0	51
9	175	0	76
9	314	0	103
9	321	0	103
9	399	0	111
9	402	0	111
9	420	0	113
9	449	0	114
9	495	0	119
9	500	0	119
9	589	0	127
9	698	0	128
9	730	0	128
9	863	0	130
9	867	0	130
9	924	0	130
9	1286	0	131
9	1350	0	131
9	1434	0	131
9	1650	0	131
9	1850	0	131
9	2064	0	132
9	2084	0	132
9	2496	0	141
10	11	0	11
10	40	0	31
10	162	0	70
10	182	0	78
10	323	0	103
10	365	0	109
10	378	0	110
10	476	0	119
10	611	0	127
10	708	0	128
10	790	0	129
10	841	0	130
10	846	0	130
10	857	0	130
10	1088	0	130
10	1092	0	130
10	1206	0	131
10	1462	0	131
10	1472	0	131
10	1640	0	131
10	1874	0	131
10	1998	0	132
10	2016	0	132
10	2028	0	132
10	2080	0	132
10	2110	0	132
10	2296	0	141
10	2306	0	141
11	12	0	12
11	22	0	21
11	41	0	31
11	52	0	36
11	230	0	91
11	260	0	95
11	712	0	128
11	746	0	128
11	962	0	130
11	1178	0	131
11	1494	0	131
11	1560	0	131
11	1794	0	131
11	2072	0	132
11	2078	0	132
11	2282	0	141
12	13	0	13
12	180	0	78
12	220	0	90
12	222	0	91
12	239	0	91
12	341	0	106
12	398	0	111
12	637	0	127
12	824	0	130
12	833	0	130
12	865	0	130
12	912	0	130
12	1046	0	130
12	1250	0	131
12	1406	0	131
12	1662	0	131
12	2318	0	141
13	14	0	14
13	60	0	41
13	484	0	119
13	570	0	127
13	579	0	127
13	582	0	127
13	701	0	128
13	787	0	129
13	1184	0	131
13	1324	0	131
13	1590	0	131
14	15	0	15
14	100	0	63
14	699	0	128
14	902	0	130
15	16	0	16
15	179	0	78
15	835	0	130
15	1412	0	131
15	1674	0	131
16	17	0	17
16	703	0	128
16	1670	0	131
17	18	0	18
17	351	0	109
17	702	0	128
17	969	0	130
17	1672	0	131
17	2240	0	141
17	2258	0	141
18	19	0	19
18	576	0	127
18	580	0	127
18	784	0	129
18	864	0	130
18	1326	0	131
18	1666	0	131
18	2468	0	141
19	20	0	20
19	45	0	31
19	96	0	62
19	130	0	66
19	172	0	75
19	343	0	107
19	376	0	110
19	783	0	129
19	819	0	130
19	900	0	130
19	1094	0	130
19	1258	0	131
19	1608	0	131
19	1708	0	131
19	2070	0	132
19	2244	0	141
19	2474	0	141
20	21	0	21
20	181	0	78
20	229	0	91
20	236	0	91
20	397	0	111
20	706	0	128
20	993	0	130
20	1482	0	131
20	1556	0	131
20	1576	0	131
20	1592	0	131
20	1710	0	131
20	1842	0	131
20	2270	0	141
20	2328	0	141
20	2528	0	142
21	23	0	22
21	71	0	46
21	262	0	95
21	275	0	97
21	340	0	106
21	458	0	114
21	491	0	119
21	494	0	119
21	997	0	130
21	1262	0	131
21	1394	0	131
21	1602	0	131
21	1616	0	131
21	2012	0	132
21	2114	0	132
21	2498	0	141
22	24	0	23
22	156	0	69
22	159	0	69
22	358	0	109
22	412	0	113
22	423	0	113
22	439	0	114
22	468	0	118
22	488	0	119
22	821	0	130
22	859	0	130
22	947	0	130
22	1012	0	130
22	1552	0	131
22	1712	0	131
22	1862	0	131
22	1996	0	132
22	2124	0	132
22	2372	0	141
23	25	0	24
23	34	0	29
23	116	0	65
23	151	0	66
23	278	0	97
23	421	0	113
23	437	0	114
23	590	0	127
23	801	0	129
23	840	0	130
23	925	0	130
23	1330	0	131
23	1392	0	131
23	1480	0	131
23	1518	0	131
23	1522	0	131
23	1542	0	131
23	1706	0	131
23	1790	0	131
23	2040	0	132
23	2098	0	132
23	2476	0	141
24	27	0	25
24	248	0	93
24	270	0	96
24	368	0	109
24	374	0	110
24	428	0	113
24	492	0	119
24	595	0	127
24	731	0	128
24	744	0	128
24	797	0	129
24	1476	0	131
24	1520	0	131
24	1578	0	131
24	1768	0	131
24	1780	0	131
24	1844	0	131
24	1864	0	131
24	2014	0	132
24	2250	0	141
24	2336	0	141
25	28	0	26
25	30	0	27
25	129	0	66
25	223	0	91
25	227	0	91
25	307	0	103
25	338	0	106
25	601	0	127
25	607	0	127
25	827	0	130
25	948	0	130
25	1080	0	130
25	1240	0	131
25	1500	0	131
25	1512	0	131
25	1562	0	131
25	1704	0	131
25	2248	0	141
26	29	0	27
26	33	0	29
26	38	0	31
26	105	0	63
26	117	0	65
26	264	0	96
26	432	0	114
26	438	0	114
26	498	0	119
26	569	0	127
26	627	0	127
26	752	0	129
26	823	0	130
26	1162	0	131
26	1322	0	131
26	1358	0	131
26	1506	0	131
26	1776	0	131
26	1798	0	131
26	1856	0	131
26	2004	0	132
26	2026	0	132
26	2068	0	132
26	2378	0	141
26	2462	0	141
26	2486	0	141
27	31	0	28
27	103	0	63
27	249	0	93
27	629	0	127
27	724	0	128
27	839	0	130
27	1048	0	130
27	1076	0	130
27	1156	0	131
27	1198	0	131
27	1310	0	131
27	1766	0	131
27	2116	0	132
27	2320	0	141
27	2500	0	141
28	32	0	29
28	42	0	31
28	115	0	65
28	143	0	66
28	612	0	127
28	763	0	129
28	1174	0	131
28	1182	0	131
28	1296	0	131
28	1422	0	131
28	2466	0	141
28	2522	0	142
29	35	0	30
29	39	0	31
29	67	0	45
29	70	0	46
29	121	0	66
29	145	0	66
29	413	0	113
29	442	0	114
29	617	0	127
29	757	0	129
29	830	0	130
29	1084	0	130
29	1276	0	131
29	1400	0	131
29	1436	0	131
29	1468	0	131
29	1772	0	131
29	2020	0	132
29	2082	0	132
29	2086	0	132
30	36	0	31
30	69	0	46
30	136	0	66
30	187	0	79
30	318	0	103
30	602	0	127
30	604	0	127
30	635	0	127
30	729	0	128
30	923	0	130
30	1172	0	131
30	1190	0	131
30	1210	0	131
30	1216	0	131
30	1348	0	131
30	1858	0	131
30	2008	0	132
30	2094	0	132
30	2310	0	141
30	2520	0	142
31	46	0	32
31	63	0	43
31	135	0	66
31	137	0	66
31	186	0	79
31	276	0	97
31	440	0	114
31	493	0	119
31	608	0	127
31	656	0	127
31	721	0	128
31	732	0	128
31	740	0	128
31	858	0	130
31	910	0	130
31	1000	0	130
31	1066	0	130
31	1078	0	130
31	1486	0	131
31	1516	0	131
31	1558	0	131
31	1570	0	131
31	1610	0	131
31	2032	0	132
31	2312	0	141
31	2526	0	142
32	47	0	33
32	138	0	66
32	140	0	66
32	254	0	95
32	265	0	96
32	271	0	96
32	315	0	103
32	366	0	109
32	373	0	110
32	475	0	119
32	593	0	127
32	695	0	128
32	818	0	130
32	829	0	130
32	838	0	130
32	932	0	130
32	1164	0	131
32	1396	0	131
32	1810	0	131
32	2478	0	141
33	49	0	34
33	56	0	38
33	104	0	63
33	441	0	114
33	499	0	119
33	642	0	127
33	669	0	127
33	672	0	127
33	736	0	128
33	919	0	130
33	921	0	130
33	933	0	130
33	1502	0	131
33	1622	0	131
33	2030	0	132
33	2090	0	132
34	50	0	35
34	119	0	66
34	122	0	66
34	261	0	95
34	279	0	97
34	317	0	103
34	355	0	109
34	454	0	114
34	591	0	127
34	599	0	127
34	647	0	127
34	707	0	128
34	747	0	128
34	750	0	129
34	860	0	130
34	972	0	130
34	992	0	130
34	1336	0	131
34	1402	0	131
34	1594	0	131
34	1804	0	131
34	2322	0	141
35	51	0	36
35	106	0	63
35	256	0	95
35	316	0	103
35	367	0	109
35	422	0	113
35	477	0	119
35	568	0	127
35	657	0	127
35	723	0	128
35	832	0	130
35	1352	0	131
35	1532	0	131
35	1848	0	131
35	2088	0	132
35	2304	0	141
35	2492	0	141
36	53	0	37
36	55	0	38
36	380	0	110
36	427	0	113
36	644	0	127
36	754	0	129
36	805	0	129
36	926	0	130
36	1320	0	131
36	1598	0	131
36	1816	0	131
36	2044	0	132
36	2332	0	141
37	54	0	38
37	124	0	66
37	334	0	106
37	385	0	110
37	410	0	113
37	429	0	113
37	473	0	119
37	725	0	128
37	842	0	130
37	929	0	130
37	1282	0	131
37	1292	0	131
37	1314	0	131
37	1360	0	131
37	1386	0	131
37	1544	0	131
37	2060	0	132
37	2290	0	141
37	2386	0	141
38	57	0	39
38	102	0	63
38	414	0	113
38	598	0	127
38	850	0	130
38	965	0	130
38	1530	0	131
38	1792	0	131
38	1808	0	131
38	2102	0	132
38	2518	0	142
39	58	0	40
39	131	0	66
39	148	0	66
39	150	0	66
39	238	0	91
39	363	0	109
39	382	0	110
39	586	0	127
39	705	0	128
39	786	0	129
39	825	0	130
39	961	0	130
39	1408	0	131
39	1632	0	131
39	1770	0	131
39	1812	0	131
39	2024	0	132
39	2262	0	141
40	59	0	41
40	65	0	44
40	92	0	61
40	123	0	66
40	149	0	66
40	246	0	92
40	379	0	110
40	383	0	110
40	587	0	127
40	751	0	129
40	898	0	130
40	1044	0	130
40	1054	0	130
40	1204	0	131
40	1376	0	131
40	1490	0	131
40	1528	0	131
40	1596	0	131
40	1782	0	131
40	1802	0	131
40	2100	0	132
40	2294	0	141
41	61	0	42
41	127	0	66
41	171	0	75
41	258	0	95
41	310	0	103
41	336	0	106
41	361	0	109
41	381	0	110
41	384	0	110
41	418	0	113
41	489	0	119
41	631	0	127
41	652	0	127
41	1062	0	130
41	1202	0	131
41	1242	0	131
41	1538	0	131
41	1546	0	131
41	1652	0	131
41	1696	0	131
41	2112	0	132
42	62	0	43
42	91	0	61
42	147	0	66
42	226	0	91
42	337	0	106
42	377	0	110
42	430	0	113
42	452	0	114
42	474	0	119
42	803	0	129
42	1194	0	131
42	1338	0	131
42	1786	0	131
42	1800	0	131
43	64	0	44
43	114	0	65
43	134	0	66
43	139	0	66
43	253	0	95
43	257	0	95
43	395	0	111
43	584	0	127
43	592	0	127
43	634	0	127
43	636	0	127
43	696	0	128
43	782	0	129
43	849	0	130
43	956	0	130
43	966	0	130
43	1226	0	131
43	1278	0	131
43	1426	0	131
43	1430	0	131
43	1492	0	131
43	1630	0	131
43	2376	0	141
43	2464	0	141
43	2506	0	141
44	66	0	45
44	173	0	75
44	218	0	90
44	231	0	91
44	847	0	130
44	950	0	130
44	963	0	130
44	1188	0	131
44	1328	0	131
44	1346	0	131
44	1438	0	131
44	1524	0	131
44	1654	0	131
44	1658	0	131
44	1774	0	131
44	1796	0	131
44	2274	0	141
45	68	0	46
45	240	0	91
45	267	0	96
45	277	0	97
45	322	0	103
45	633	0	127
45	734	0	128
45	800	0	129
45	907	0	130
45	1166	0	131
45	1466	0	131
45	1574	0	131
45	1854	0	131
45	2096	0	132
45	2106	0	132
45	2122	0	132
46	72	0	47
46	259	0	95
46	304	0	103
46	319	0	103
46	360	0	109
46	369	0	109
46	393	0	111
46	411	0	113
46	424	0	113
46	630	0	127
46	693	0	128
46	798	0	129
46	872	0	130
46	896	0	130
46	940	0	130
46	953	0	130
46	1004	0	130
46	1238	0	131
46	1390	0	131
46	1840	0	131
46	2442	0	141
46	2460	0	141
47	73	0	48
47	184	0	79
47	328	0	105
47	389	0	111
47	481	0	119
47	870	0	130
47	922	0	130
47	927	0	130
47	1288	0	131
47	1866	0	131
47	2036	0	132
47	2066	0	132
48	74	0	49
48	95	0	62
48	281	0	97
48	308	0	103
48	333	0	106
48	362	0	109
48	396	0	111
48	416	0	113
48	650	0	127
48	668	0	127
48	716	0	128
48	728	0	128
48	753	0	129
48	794	0	129
48	809	0	129
48	856	0	130
48	899	0	130
48	951	0	130
48	1060	0	130
48	1222	0	131
48	1298	0	131
48	1302	0	131
48	1382	0	131
48	1580	0	131
48	2038	0	132
48	2284	0	141
48	2504	0	141
48	2530	0	142
49	75	0	50
49	326	0	104
49	390	0	111
49	434	0	114
49	451	0	114
49	504	0	119
49	897	0	130
49	934	0	130
49	1072	0	130
49	1192	0	131
49	1340	0	131
49	1460	0	131
49	1626	0	131
49	1870	0	131
49	2046	0	132
49	2298	0	141
50	76	0	51
50	126	0	66
50	141	0	66
50	243	0	92
50	306	0	103
50	404	0	111
50	645	0	127
50	711	0	128
50	739	0	128
50	869	0	130
50	918	0	130
50	920	0	130
50	1176	0	131
50	1180	0	131
50	1218	0	131
50	2062	0	132
50	2120	0	132
51	79	0	52
51	125	0	66
51	324	0	103
51	1366	0	131
51	2300	0	141
51	2338	0	141
51	2534	0	142
52	80	0	53
52	89	0	60
52	167	0	74
52	303	0	103
52	469	0	118
52	621	0	127
52	625	0	127
52	673	0	127
52	689	0	128
52	939	0	130
52	1368	0	131
52	1388	0	131
52	1722	0	131
52	1818	0	131
52	1836	0	131
52	2536	0	142
53	81	0	54
53	301	0	103
53	507	0	119
53	531	0	122
53	619	0	127
53	895	0	130
53	943	0	130
53	1040	0	130
53	1760	0	131
53	1822	0	131
53	2288	0	141
53	2388	0	141
53	2392	0	141
53	2422	0	141
54	82	0	55
54	84	0	56
54	290	0	100
54	528	0	121
54	554	0	125
54	1752	0	131
54	1896	0	131
54	1960	0	132
54	2344	0	141
54	2366	0	141
54	2390	0	141
55	83	0	56
55	879	0	130
55	890	0	130
55	1122	0	130
55	2354	0	141
55	2428	0	141
56	85	0	57
56	302	0	103
56	508	0	119
56	510	0	119
56	512	0	119
56	549	0	124
56	674	0	127
56	676	0	128
56	1118	0	130
56	1128	0	130
56	1136	0	130
56	1718	0	131
56	1820	0	131
56	1830	0	131
56	1972	0	132
56	1976	0	132
56	2410	0	141
57	86	0	58
57	169	0	75
57	283	0	97
57	288	0	99
57	357	0	109
57	524	0	121
57	541	0	123
57	660	0	127
57	977	0	130
57	1102	0	130
57	1888	0	131
57	1936	0	132
57	1992	0	132
58	87	0	59
58	516	0	119
58	942	0	130
58	2546	0	142
59	88	0	60
59	520	0	120
59	624	0	127
59	663	0	127
59	685	0	128
59	1006	0	130
59	1036	0	130
59	1130	0	130
59	1978	0	132
59	2452	0	141
59	2542	0	142
60	90	0	61
60	160	0	69
60	170	0	75
60	244	0	92
60	282	0	97
60	339	0	106
60	372	0	110
60	391	0	111
60	459	0	114
60	490	0	119
60	567	0	127
60	697	0	128
60	727	0	128
60	781	0	129
60	802	0	129
60	808	0	129
60	1056	0	130
60	1200	0	131
60	1220	0	131
60	1612	0	131
60	1642	0	131
60	1838	0	131
60	2000	0	132
60	2034	0	132
60	2108	0	132
61	94	0	62
61	176	0	76
61	225	0	91
61	311	0	103
61	417	0	113
61	455	0	114
61	831	0	130
61	996	0	130
61	1334	0	131
61	1496	0	131
61	1510	0	131
61	1514	0	131
61	1636	0	131
61	1764	0	131
61	2022	0	132
61	2316	0	141
62	99	0	63
62	344	0	107
62	574	0	127
62	700	0	128
62	968	0	130
62	2130	0	132
62	2256	0	141
63	108	0	64
63	112	0	65
63	142	0	66
63	234	0	91
63	255	0	95
63	456	0	114
63	485	0	119
63	606	0	127
63	655	0	127
63	743	0	128
63	745	0	128
63	760	0	129
63	1068	0	130
63	1086	0	130
63	1274	0	131
63	1568	0	131
63	1584	0	131
63	1700	0	131
64	111	0	65
64	146	0	66
64	354	0	109
64	419	0	113
64	600	0	127
64	648	0	127
64	758	0	129
64	917	0	130
64	1168	0	131
64	1246	0	131
64	1404	0	131
64	1504	0	131
64	1682	0	131
64	1686	0	131
64	1692	0	131
64	2494	0	141
65	118	0	66
65	128	0	66
65	241	0	91
65	448	0	114
65	483	0	119
65	502	0	119
65	588	0	127
65	646	0	127
65	952	0	130
65	994	0	130
65	1212	0	131
65	1284	0	131
65	1294	0	131
65	1424	0	131
65	1588	0	131
65	1814	0	131
65	2006	0	132
65	2502	0	141
66	153	0	67
66	185	0	79
66	356	0	109
66	433	0	114
66	478	0	119
66	605	0	127
66	610	0	127
66	616	0	127
66	618	0	127
66	641	0	127
66	654	0	127
66	658	0	127
66	694	0	128
66	741	0	128
66	1042	0	130
66	1342	0	131
66	1638	0	131
66	1762	0	131
66	1868	0	131
66	1876	0	131
66	2074	0	132
66	2302	0	141
66	2340	0	141
66	2458	0	141
66	2488	0	141
67	154	0	68
67	158	0	69
67	737	0	128
67	822	0	130
67	991	0	130
67	998	0	130
67	1002	0	130
67	1082	0	130
67	1098	0	130
67	1154	0	131
67	1234	0	131
67	1470	0	131
67	2480	0	141
68	155	0	69
68	300	0	103
68	465	0	117
68	467	0	118
68	519	0	120
68	532	0	122
68	622	0	127
68	688	0	128
68	874	0	130
68	882	0	130
68	888	0	130
68	946	0	130
68	984	0	130
68	990	0	130
68	1010	0	130
68	1038	0	130
68	1152	0	131
68	1922	0	132
68	1944	0	132
69	161	0	70
69	232	0	91
69	235	0	91
69	375	0	110
69	457	0	114
69	503	0	119
69	628	0	127
69	710	0	128
69	817	0	130
69	906	0	130
69	949	0	130
69	1090	0	130
69	1312	0	131
69	1398	0	131
69	1534	0	131
69	1540	0	131
69	1618	0	131
69	1628	0	131
69	1694	0	131
69	1806	0	131
69	2048	0	132
69	2092	0	132
69	2104	0	132
69	2118	0	132
69	2324	0	141
69	2382	0	141
70	163	0	71
70	280	0	97
70	335	0	106
70	359	0	109
70	370	0	109
70	482	0	119
70	506	0	119
70	603	0	127
70	626	0	127
70	639	0	127
70	665	0	127
70	713	0	128
70	726	0	128
70	937	0	130
70	1058	0	130
70	1600	0	131
70	1886	0	131
70	2042	0	132
70	2266	0	141
70	2286	0	141
70	2326	0	141
70	2330	0	141
71	164	0	72
71	287	0	99
71	515	0	119
71	517	0	119
71	540	0	123
71	659	0	127
71	873	0	130
71	988	0	130
71	1026	0	130
71	1034	0	130
71	1884	0	131
71	2342	0	141
71	2420	0	141
71	2456	0	141
71	2544	0	142
72	165	0	73
72	538	0	123
72	543	0	123
72	562	0	126
72	687	0	128
72	877	0	130
72	880	0	130
72	886	0	130
72	892	0	130
72	945	0	130
72	980	0	130
72	1022	0	130
72	1142	0	131
72	1882	0	131
72	1906	0	131
72	1950	0	132
72	2414	0	141
72	2426	0	141
72	2450	0	141
73	166	0	74
73	297	0	103
73	623	0	127
73	684	0	128
73	748	0	128
73	1014	0	130
73	1020	0	130
73	1030	0	130
73	1714	0	131
73	1738	0	131
73	1934	0	132
73	2362	0	141
74	168	0	75
74	284	0	97
74	544	0	123
74	677	0	128
74	878	0	130
74	885	0	130
74	894	0	130
74	975	0	130
74	987	0	130
74	1740	0	131
74	1892	0	131
74	1926	0	132
74	1956	0	132
74	1964	0	132
75	174	0	76
75	594	0	127
75	632	0	127
75	638	0	127
75	717	0	128
75	722	0	128
75	738	0	128
75	762	0	129
75	799	0	129
75	911	0	130
75	1064	0	130
75	1224	0	131
75	1620	0	131
75	1634	0	131
75	2076	0	132
75	2252	0	141
75	2380	0	141
75	2484	0	141
76	177	0	77
76	583	0	127
76	2508	0	141
76	2512	0	142
77	178	0	78
77	352	0	109
77	400	0	111
77	573	0	127
77	848	0	130
77	916	0	130
77	1186	0	131
77	1270	0	131
77	1428	0	131
77	2242	0	141
78	183	0	79
78	188	0	79
78	479	0	119
78	653	0	127
78	780	0	129
78	795	0	129
78	807	0	129
78	811	0	130
78	816	0	130
78	1074	0	130
78	1290	0	131
78	1378	0	131
78	2056	0	132
79	189	0	80
79	330	0	105
79	766	0	129
79	792	0	129
79	844	0	130
79	1452	0	131
80	190	0	81
80	329	0	105
80	480	0	119
80	767	0	129
80	779	0	129
80	813	0	130
80	1526	0	131
81	191	0	82
81	200	0	87
81	205	0	88
81	768	0	129
82	192	0	83
82	198	0	87
82	217	0	90
82	765	0	129
82	771	0	129
82	777	0	129
82	1440	0	131
83	193	0	84
83	196	0	86
83	199	0	87
83	201	0	87
83	213	0	90
83	1442	0	131
83	1446	0	131
84	194	0	85
84	202	0	87
84	204	0	88
84	206	0	88
84	214	0	90
84	769	0	129
84	773	0	129
85	195	0	86
85	207	0	88
85	775	0	129
86	197	0	87
86	208	0	88
86	211	0	90
86	778	0	129
86	1450	0	131
87	203	0	88
87	212	0	90
87	216	0	90
87	770	0	129
87	772	0	129
87	774	0	129
88	209	0	89
88	215	0	90
88	776	0	129
88	1444	0	131
89	210	0	90
89	764	0	129
89	1448	0	131
90	221	0	91
90	224	0	91
90	312	0	103
90	426	0	113
90	497	0	119
90	501	0	119
90	505	0	119
90	596	0	127
90	709	0	128
90	755	0	129
90	861	0	130
90	954	0	130
90	1160	0	131
90	1344	0	131
90	1380	0	131
90	1488	0	131
90	1644	0	131
90	2010	0	132
90	2268	0	141
90	2314	0	141
90	2490	0	141
91	242	0	92
91	272	0	96
91	392	0	111
91	715	0	128
91	720	0	128
91	756	0	129
91	761	0	129
91	789	0	129
91	866	0	130
91	1096	0	130
91	1228	0	131
91	1356	0	131
91	1536	0	131
91	1614	0	131
91	1702	0	131
92	247	0	93
92	269	0	96
92	332	0	106
92	387	0	110
92	409	0	113
92	815	0	130
92	852	0	130
92	871	0	130
92	1304	0	131
92	1308	0	131
92	1318	0	131
92	1478	0	131
92	2052	0	132
92	2334	0	141
92	2384	0	141
93	250	0	94
93	415	0	113
93	445	0	114
93	486	0	119
93	581	0	127
93	671	0	127
93	788	0	129
93	971	0	130
93	995	0	130
93	1582	0	131
93	1586	0	131
93	1646	0	131
93	1852	0	131
93	2272	0	141
93	2524	0	142
94	251	0	95
94	571	0	127
94	704	0	128
94	834	0	130
94	960	0	130
94	1668	0	131
95	263	0	96
95	266	0	96
95	403	0	111
95	425	0	113
95	444	0	114
95	828	0	130
95	1052	0	130
95	1196	0	131
95	1244	0	131
95	1332	0	131
95	1548	0	131
95	1778	0	131
95	1788	0	131
95	1860	0	131
96	273	0	97
96	305	0	103
96	309	0	103
96	313	0	103
96	443	0	114
96	597	0	127
96	667	0	127
96	714	0	128
96	718	0	128
96	742	0	128
96	820	0	130
96	908	0	130
96	999	0	130
96	1230	0	131
96	1236	0	131
96	1354	0	131
96	1432	0	131
96	1474	0	131
96	1508	0	131
96	1566	0	131
96	2308	0	141
97	285	0	98
97	294	0	102
97	299	0	103
97	536	0	122
97	546	0	123
97	553	0	125
97	983	0	130
97	1750	0	131
97	1894	0	131
97	1918	0	132
97	1930	0	132
97	1952	0	132
97	1962	0	132
97	1968	0	132
97	2346	0	141
98	286	0	99
98	976	0	130
98	979	0	130
98	985	0	130
98	1120	0	130
98	1132	0	130
98	1140	0	131
98	1724	0	131
98	1732	0	131
98	1826	0	131
98	1974	0	132
98	1980	0	132
98	2400	0	141
98	2408	0	141
99	289	0	100
99	291	0	100
99	296	0	103
99	525	0	121
99	682	0	128
99	876	0	130
99	891	0	130
99	1104	0	130
99	1112	0	130
99	1736	0	131
99	1742	0	131
99	2350	0	141
99	2356	0	141
99	2360	0	141
100	292	0	101
100	529	0	121
100	640	0	127
100	692	0	128
100	944	0	130
100	1008	0	130
100	1758	0	131
100	1832	0	131
100	1958	0	132
100	1984	0	132
100	2424	0	141
100	2444	0	141
101	293	0	102
101	298	0	103
101	527	0	121
101	535	0	122
101	691	0	128
101	938	0	130
101	1134	0	130
101	1720	0	131
101	1746	0	131
101	1754	0	131
101	1824	0	131
101	1880	0	131
101	1890	0	131
101	1920	0	132
101	2412	0	141
102	295	0	103
102	462	0	116
102	464	0	117
102	511	0	119
102	545	0	123
102	548	0	124
102	550	0	124
102	556	0	125
102	559	0	126
102	883	0	130
102	1116	0	130
102	1124	0	130
102	1734	0	131
102	1902	0	131
102	1970	0	132
102	2406	0	141
103	325	0	104
103	405	0	111
103	436	0	114
103	651	0	127
103	791	0	129
103	804	0	129
103	845	0	130
103	1374	0	131
103	1384	0	131
103	1454	0	131
103	1872	0	131
103	2058	0	132
103	2292	0	141
104	327	0	105
104	793	0	129
104	1306	0	131
104	1364	0	131
104	2532	0	142
105	331	0	106
105	386	0	110
105	407	0	112
105	2054	0	132
106	342	0	107
106	346	0	108
106	350	0	109
106	901	0	130
106	915	0	130
106	1252	0	131
106	1416	0	131
106	1676	0	131
107	345	0	108
107	347	0	108
107	2470	0	141
108	348	0	109
108	575	0	127
108	577	0	127
108	967	0	130
108	1248	0	131
108	1410	0	131
108	1606	0	131
108	2128	0	132
109	371	0	110
109	513	0	119
109	539	0	123
109	542	0	123
109	566	0	127
109	941	0	130
109	986	0	130
109	1716	0	131
109	1744	0	131
109	1834	0	131
109	1878	0	131
109	1898	0	131
109	1990	0	132
109	1994	0	132
109	2396	0	141
109	2448	0	141
109	2540	0	142
110	388	0	111
110	435	0	114
110	470	0	118
110	806	0	129
110	1362	0	131
110	1372	0	131
110	1458	0	131
111	406	0	112
111	472	0	119
111	1316	0	131
111	1456	0	131
112	408	0	113
112	447	0	114
112	812	0	130
112	854	0	130
112	930	0	130
112	2050	0	132
113	431	0	114
113	450	0	114
113	609	0	127
113	615	0	127
113	733	0	128
113	796	0	129
113	928	0	130
113	936	0	130
113	957	0	130
113	1070	0	130
113	1158	0	131
113	1208	0	131
113	1260	0	131
113	1604	0	131
113	1624	0	131
113	1660	0	131
113	2126	0	132
113	2246	0	141
113	2264	0	141
114	460	0	115
114	509	0	119
114	514	0	119
114	526	0	121
114	662	0	127
114	664	0	127
114	690	0	128
114	893	0	130
114	978	0	130
114	1024	0	130
114	1028	0	130
114	1100	0	130
114	1988	0	132
114	2418	0	141
114	2440	0	141
114	2538	0	142
115	461	0	116
115	521	0	120
115	558	0	126
115	565	0	127
115	881	0	130
115	884	0	130
115	974	0	130
115	989	0	130
115	1018	0	130
115	1032	0	130
115	1144	0	131
115	1748	0	131
115	1900	0	131
115	1924	0	132
115	1928	0	132
115	1932	0	132
115	1966	0	132
115	1986	0	132
115	2352	0	141
115	2432	0	141
116	463	0	117
116	551	0	124
116	1126	0	130
116	1728	0	131
117	466	0	118
117	560	0	126
117	661	0	127
117	686	0	128
117	889	0	130
117	1756	0	131
117	1910	0	131
117	2364	0	141
117	2402	0	141
117	2416	0	141
117	2454	0	141
118	471	0	119
118	620	0	127
118	1370	0	131
119	518	0	120
119	523	0	121
119	534	0	122
119	678	0	128
119	981	0	130
119	1110	0	130
119	1938	0	132
119	2436	0	141
120	522	0	121
120	533	0	122
120	563	0	126
120	887	0	130
120	1016	0	130
120	1108	0	130
120	1150	0	131
120	1940	0	132
120	1948	0	132
120	2438	0	141
121	530	0	122
121	1138	0	131
121	1982	0	132
121	2394	0	141
121	2398	0	141
121	2446	0	141
122	537	0	123
122	680	0	128
122	982	0	130
122	2404	0	141
123	547	0	124
123	555	0	125
123	683	0	128
123	1106	0	130
123	1146	0	131
123	1954	0	132
123	2368	0	141
123	2434	0	141
124	552	0	125
124	561	0	126
124	681	0	128
124	1114	0	130
124	2348	0	141
125	557	0	126
125	679	0	128
125	2430	0	141
126	564	0	127
126	875	0	130
126	1148	0	131
126	1908	0	131
126	1942	0	132
126	1946	0	132
126	2358	0	141
127	675	0	128
127	1726	0	131
127	1730	0	131
127	1828	0	131
128	749	0	129
128	973	0	130
128	1232	0	131
128	2370	0	141
129	810	0	130
129	814	0	130
129	843	0	130
129	853	0	130
129	1300	0	131
130	1904	0	131
130	1912	0	131
130	1916	0	132
131	1914	0	132
132	2132	0	133
132	2238	0	141
133	2134	0	134
133	2138	0	135
133	2148	0	138
133	2170	0	139
133	2178	0	139
133	2200	0	140
133	2204	0	140
133	2230	0	141
133	2236	0	141
134	2136	0	135
134	2168	0	139
134	2202	0	140
134	2206	0	140
134	2234	0	141
135	2140	0	136
135	2146	0	138
135	2158	0	139
135	2172	0	139
135	2176	0	139
135	2180	0	139
135	2210	0	140
136	2142	0	137
136	2154	0	139
136	2162	0	139
136	2182	0	139
136	2190	0	140
136	2194	0	140
137	2144	0	138
137	2152	0	139
137	2160	0	139
137	2164	0	139
137	2184	0	139
137	2214	0	140
137	2224	0	141
138	2150	0	139
138	2156	0	139
138	2166	0	139
138	2174	0	139
138	2188	0	140
138	2198	0	140
138	2208	0	140
138	2212	0	140
138	2228	0	141
138	2232	0	141
139	2186	0	140
139	2192	0	140
139	2196	0	140
139	2216	0	140
139	2220	0	141
140	2218	0	141
140	2222	0	141
140	2226	0	141
141	2510	0	142
142	2548	0	143
142	2552	0	144
143	2550	0	144
144	2554	0	145

