version 3
run General-421-20250904-14:13:24-15906
attr configname General
attr datetime 20250904-14:13:24
attr datetimef 20250904-141324
attr experiment General
attr inifile omnetpp.ini
attr iterationvars ""
attr iterationvarsd ""
attr iterationvarsf ""
attr measurement ""
attr network TaxiNetwork
attr processid 15906
attr repetition 421
attr replication #421
attr resultdir results
attr runnumber 421
attr seedset 421
config network TaxiNetwork
config seed-set 421
config num-rngs 1
config sim-time-limit 10s
config repeat 500
config *.numWalkers 1
config *.enableDuplication true
config *.rc 700
config **.node[0].xCor 2933
config **.node[0].yCor 2747
config **.node[1].xCor 2919
config **.node[1].yCor 2817
config **.node[2].xCor 2910
config **.node[2].yCor 2861
config **.node[3].xCor 2429
config **.node[3].yCor 2851
config **.node[4].xCor 2908
config **.node[4].yCor 2714
config **.node[5].xCor 2606
config **.node[5].yCor 2722
config **.node[6].xCor 2575
config **.node[6].yCor 2753
config **.node[7].xCor 2654
config **.node[7].yCor 2513
config **.node[8].xCor 2773
config **.node[8].yCor 2580
config **.node[9].xCor 3043
config **.node[9].yCor 2780
config **.node[10].xCor 3020
config **.node[10].yCor 2813
config **.node[11].xCor 2599
config **.node[11].yCor 2300
config **.node[12].xCor 2917
config **.node[12].yCor 2698
config **.node[13].xCor 2625
config **.node[13].yCor 2641
config **.node[14].xCor 2604
config **.node[14].yCor 2790
config **.node[15].xCor 2786
config **.node[15].yCor 3082
config **.node[16].xCor 2603
config **.node[16].yCor 2802
config **.node[17].xCor 2637
config **.node[17].yCor 2869
config **.node[18].xCor 2675
config **.node[18].yCor 2955
config **.node[19].xCor 2845
config **.node[19].yCor 2937
config **.node[20].xCor 2860
config **.node[20].yCor 2888
config **.node[21].xCor 2843
config **.node[21].yCor 4158
config **.node[22].xCor 2852
config **.node[22].yCor 4017
config **.node[23].xCor 2892
config **.node[23].yCor 4961
config **.node[24].xCor 2313
config **.node[24].yCor 3993
config **.node[25].xCor 2891
config **.node[25].yCor 4959
config **.node[26].xCor 2370
config **.node[26].yCor 4050
config **.node[27].xCor 2788
config **.node[27].yCor 3958
config **.node[28].xCor 2819
config **.node[28].yCor 4428
config **.node[29].xCor 2790
config **.node[29].yCor 3761
config **.node[30].xCor 2809
config **.node[30].yCor 2908
config **.node[31].xCor 2919
config **.node[31].yCor 3575
config **.node[32].xCor 2946
config **.node[32].yCor 3466
config **.node[33].xCor 2911
config **.node[33].yCor 3453
config **.node[34].xCor 2370
config **.node[34].yCor 3656
config **.node[35].xCor 2438
config **.node[35].yCor 3738
config **.node[36].xCor 2737
config **.node[36].yCor 3570
config **.node[37].xCor 2921
config **.node[37].yCor 3698
config **.node[38].xCor 2907
config **.node[38].yCor 5197
config **.node[39].xCor 2860
config **.node[39].yCor 3852
config **.node[40].xCor 2927
config **.node[40].yCor 3684
config **.node[41].xCor 3023
config **.node[41].yCor 5313
config **.node[42].xCor 3220
config **.node[42].yCor 5811
config **.node[43].xCor 3432
config **.node[43].yCor 5715
config **.node[44].xCor 2754
config **.node[44].yCor 2463
config **.node[45].xCor 2646
config **.node[45].yCor 2673
config **.node[46].xCor 3051
config **.node[46].yCor 2792
config **.node[47].xCor 1666
config **.node[47].yCor 3697
config **.node[48].xCor 1662
config **.node[48].yCor 3694
config **.node[49].xCor 1664
config **.node[49].yCor 3667
config **.node[50].xCor 1660
config **.node[50].yCor 3664
config **.node[51].xCor 1710
config **.node[51].yCor 3573
config **.node[52].xCor 2082
config **.node[52].yCor 2650
config **.node[53].xCor 2086
config **.node[53].yCor 2657
config **.node[54].xCor 2257
config **.node[54].yCor 3232
config **.node[55].xCor 2258
config **.node[55].yCor 3225
config **.node[56].xCor 1926
config **.node[56].yCor 2570
config **.node[57].xCor 1926
config **.node[57].yCor 2576
config **.node[58].xCor 2104
config **.node[58].yCor 1758
config **.node[59].xCor 1957
config **.node[59].yCor 1826
config **.node[60].xCor 3473
config **.node[60].yCor 1523
config **.node[61].xCor 3335
config **.node[61].yCor 1726
config **.node[62].xCor 3478
config **.node[62].yCor 1517
config **.node[63].xCor 3386
config **.node[63].yCor 2119
config **.node[64].xCor 3474
config **.node[64].yCor 1762
config **.node[65].xCor 3797
config **.node[65].yCor 2099
config **.node[66].xCor 3642
config **.node[66].yCor 2136
config **.node[67].xCor 3481
config **.node[67].yCor 2334
config **.node[68].xCor 3088
config **.node[68].yCor 1505
config **.node[69].xCor 3037
config **.node[69].yCor 1693
config **.node[70].xCor 3026
config **.node[70].yCor 1700
config **.node[71].xCor 3019
config **.node[71].yCor 669
config **.node[72].xCor 3513
config **.node[72].yCor 1358
config **.node[73].xCor 3545
config **.node[73].yCor 1230
config **.node[74].xCor 4228
config **.node[74].yCor 4220
config **.node[75].xCor 3379
config **.node[75].yCor 1207
config **.node[76].xCor 3596
config **.node[76].yCor 963
config **.node[77].xCor 3637
config **.node[77].yCor 1188
config **.node[78].xCor 3759
config **.node[78].yCor 1030
config **.node[79].xCor 2918
config **.node[79].yCor 1455
config **.node[80].xCor 2711
config **.node[80].yCor 1297
config **.node[81].xCor 439
config **.node[81].yCor 1623
config **.node[82].xCor 2857
config **.node[82].yCor 3581
config **.node[83].xCor 2858
config **.node[83].yCor 3584
config **.node[84].xCor 2999
config **.node[84].yCor 2636
config **.node[85].xCor 2905
config **.node[85].yCor 2778
config **.node[86].xCor 2653
config **.node[86].yCor 2845
config **.node[87].xCor 2864
config **.node[87].yCor 2836
config **.node[88].xCor 2426
config **.node[88].yCor 2892
config **.node[89].xCor 2964
config **.node[89].yCor 2804
config **.node[90].xCor 2586
config **.node[90].yCor 3135
config **.node[91].xCor 2864
config **.node[91].yCor 2980
config **.node[92].xCor 2527
config **.node[92].yCor 3219
config **.node[93].xCor 2863
config **.node[93].yCor 3142
config **.node[94].xCor 2485
config **.node[94].yCor 3269
config **.node[95].xCor 2653
config **.node[95].yCor 1065
config **.node[96].xCor 4062
config **.node[96].yCor 400
config **.node[97].xCor 5762
config **.node[97].yCor 3023
config **.node[98].xCor 1414
config **.node[98].yCor 3461
config **.node[99].xCor 2911
config **.node[99].yCor 1737
config **.node[100].xCor 2595
config **.node[100].yCor 2299
config **.node[101].xCor 2702
config **.node[101].yCor 3419
config **.node[102].xCor 2813
config **.node[102].yCor 3307
config **.node[103].xCor 2638
config **.node[103].yCor 2258
config **.node[104].xCor 2590
config **.node[104].yCor 3125
config **.node[105].xCor 1856
config **.node[105].yCor 2990
config **.node[106].xCor 1894
config **.node[106].yCor 2239
config **.node[107].xCor 383
config **.node[107].yCor 1251
config **.node[108].xCor 3447
config **.node[108].yCor 5489
config **.node[109].xCor 3450
config **.node[109].yCor 5697
config **.node[110].xCor 2719
config **.node[110].yCor 1920
config **.node[111].xCor 2085
config **.node[111].yCor 2389
config **.node[112].xCor 1910
config **.node[112].yCor 2548
config **.node[113].xCor 2069
config **.node[113].yCor 2050
config **.node[114].xCor 2184
config **.node[114].yCor 2209
config **.node[115].xCor 2278
config **.node[115].yCor 2390
config **.node[116].xCor 2249
config **.node[116].yCor 2299
config **.node[117].xCor 2356
config **.node[117].yCor 2303
config **.node[118].xCor 2192
config **.node[118].yCor 2475
config **.node[119].xCor 1720
config **.node[119].yCor 2911
config **.node[120].xCor 2400
config **.node[120].yCor 2887
config **.node[121].xCor 3344
config **.node[121].yCor 1890
config **.node[122].xCor 3136
config **.node[122].yCor 2418
config **.node[123].xCor 3243
config **.node[123].yCor 2525
config **.node[124].xCor 2396
config **.node[124].yCor 1267
config **.node[125].xCor 467
config **.node[125].yCor 1875
config **.node[126].xCor 3506
config **.node[126].yCor 1221
config **.node[127].xCor 1034
config **.node[127].yCor 1474
config **.node[128].xCor 2908
config **.node[128].yCor 1784
config **.node[129].xCor 2876
config **.node[129].yCor 1761
config **.node[130].xCor 2849
config **.node[130].yCor 1795
config **.node[131].xCor 3029
config **.node[131].yCor 1859
config **.node[132].xCor 2924
config **.node[132].yCor 1848
config **.node[133].xCor 3493
config **.node[133].yCor 1559
config **.node[134].xCor 2760
config **.node[134].yCor 1761
config **.node[135].xCor 1644
config **.node[135].yCor 3755
config **.node[136].xCor 1463
config **.node[136].yCor 3432
config **.node[137].xCor 2595
config **.node[137].yCor 2849
config **.node[138].xCor 2581
config **.node[138].yCor 2867
config **.node[139].xCor 2524
config **.node[139].yCor 2911
config **.node[140].xCor 2570
config **.node[140].yCor 2924
config **.node[141].xCor 2676
config **.node[141].yCor 2890
config **.node[142].xCor 2666
config **.node[142].yCor 2876
config **.node[143].xCor 3735
config **.node[143].yCor 1726
config **.node[144].xCor 1637
config **.node[144].yCor 3438

vector 0 TaxiNetwork.node[46] visitedPerTimestep ETV
vector 1 TaxiNetwork.node[137] visitedPerTimestep ETV
vector 2 TaxiNetwork.node[19] visitedPerTimestep ETV
vector 3 TaxiNetwork.node[17] visitedPerTimestep ETV
vector 4 TaxiNetwork.node[15] visitedPerTimestep ETV
vector 5 TaxiNetwork.node[54] visitedPerTimestep ETV
vector 6 TaxiNetwork.node[139] visitedPerTimestep ETV
vector 7 TaxiNetwork.node[118] visitedPerTimestep ETV
vector 8 TaxiNetwork.node[59] visitedPerTimestep ETV
vector 9 TaxiNetwork.node[114] visitedPerTimestep ETV
vector 10 TaxiNetwork.node[3] visitedPerTimestep ETV
vector 11 TaxiNetwork.node[12] visitedPerTimestep ETV
vector 12 TaxiNetwork.node[6] visitedPerTimestep ETV
vector 13 TaxiNetwork.node[94] visitedPerTimestep ETV
vector 14 TaxiNetwork.node[140] visitedPerTimestep ETV
vector 15 TaxiNetwork.node[120] visitedPerTimestep ETV
vector 16 TaxiNetwork.node[57] visitedPerTimestep ETV
vector 17 TaxiNetwork.node[113] visitedPerTimestep ETV
vector 18 TaxiNetwork.node[58] visitedPerTimestep ETV
vector 19 TaxiNetwork.node[111] visitedPerTimestep ETV
vector 20 TaxiNetwork.node[105] visitedPerTimestep ETV
vector 21 TaxiNetwork.node[106] visitedPerTimestep ETV
vector 22 TaxiNetwork.node[53] visitedPerTimestep ETV
vector 23 TaxiNetwork.node[119] visitedPerTimestep ETV
vector 24 TaxiNetwork.node[98] visitedPerTimestep ETV
vector 25 TaxiNetwork.node[135] visitedPerTimestep ETV
vector 26 TaxiNetwork.node[51] visitedPerTimestep ETV
vector 27 TaxiNetwork.node[50] visitedPerTimestep ETV
vector 28 TaxiNetwork.node[47] visitedPerTimestep ETV
vector 29 TaxiNetwork.node[136] visitedPerTimestep ETV
vector 30 TaxiNetwork.node[48] visitedPerTimestep ETV
vector 31 TaxiNetwork.node[49] visitedPerTimestep ETV
vector 32 TaxiNetwork.node[52] visitedPerTimestep ETV
vector 33 TaxiNetwork.node[112] visitedPerTimestep ETV
vector 34 TaxiNetwork.node[116] visitedPerTimestep ETV
vector 35 TaxiNetwork.node[44] visitedPerTimestep ETV
vector 36 TaxiNetwork.node[100] visitedPerTimestep ETV
vector 37 TaxiNetwork.node[5] visitedPerTimestep ETV
vector 38 TaxiNetwork.node[115] visitedPerTimestep ETV
vector 39 TaxiNetwork.node[2] visitedPerTimestep ETV
vector 40 TaxiNetwork.node[0] visitedPerTimestep ETV
vector 41 TaxiNetwork.node[123] visitedPerTimestep ETV
vector 42 TaxiNetwork.node[1] visitedPerTimestep ETV
vector 43 TaxiNetwork.node[102] visitedPerTimestep ETV
vector 44 TaxiNetwork.node[40] visitedPerTimestep ETV
vector 45 TaxiNetwork.node[82] visitedPerTimestep ETV
vector 46 TaxiNetwork.node[24] visitedPerTimestep ETV
vector 47 TaxiNetwork.node[83] visitedPerTimestep ETV
vector 48 TaxiNetwork.node[101] visitedPerTimestep ETV
vector 49 TaxiNetwork.node[10] visitedPerTimestep ETV
vector 50 TaxiNetwork.node[141] visitedPerTimestep ETV
vector 51 TaxiNetwork.node[138] visitedPerTimestep ETV
vector 52 TaxiNetwork.node[13] visitedPerTimestep ETV
vector 53 TaxiNetwork.node[11] visitedPerTimestep ETV
vector 54 TaxiNetwork.node[85] visitedPerTimestep ETV
vector 55 TaxiNetwork.node[30] visitedPerTimestep ETV
vector 56 TaxiNetwork.node[4] visitedPerTimestep ETV
vector 57 TaxiNetwork.node[9] visitedPerTimestep ETV
vector 58 TaxiNetwork.node[89] visitedPerTimestep ETV
vector 59 TaxiNetwork.node[20] visitedPerTimestep ETV
vector 60 TaxiNetwork.node[86] visitedPerTimestep ETV
vector 61 TaxiNetwork.node[142] visitedPerTimestep ETV
vector 62 TaxiNetwork.node[67] visitedPerTimestep ETV
vector 63 TaxiNetwork.node[84] visitedPerTimestep ETV
vector 64 TaxiNetwork.node[8] visitedPerTimestep ETV
vector 65 TaxiNetwork.node[93] visitedPerTimestep ETV
vector 66 TaxiNetwork.node[32] visitedPerTimestep ETV
vector 67 TaxiNetwork.node[33] visitedPerTimestep ETV
vector 68 TaxiNetwork.node[117] visitedPerTimestep ETV
vector 69 TaxiNetwork.node[14] visitedPerTimestep ETV
vector 70 TaxiNetwork.node[87] visitedPerTimestep ETV
vector 71 TaxiNetwork.node[122] visitedPerTimestep ETV
vector 72 TaxiNetwork.node[88] visitedPerTimestep ETV
vector 73 TaxiNetwork.node[7] visitedPerTimestep ETV
vector 74 TaxiNetwork.node[91] visitedPerTimestep ETV
vector 75 TaxiNetwork.node[31] visitedPerTimestep ETV
vector 76 TaxiNetwork.node[35] visitedPerTimestep ETV
vector 77 TaxiNetwork.node[34] visitedPerTimestep ETV
vector 78 TaxiNetwork.node[55] visitedPerTimestep ETV
vector 79 TaxiNetwork.node[90] visitedPerTimestep ETV
vector 80 TaxiNetwork.node[92] visitedPerTimestep ETV
vector 81 TaxiNetwork.node[16] visitedPerTimestep ETV
vector 82 TaxiNetwork.node[18] visitedPerTimestep ETV
vector 83 TaxiNetwork.node[27] visitedPerTimestep ETV
vector 84 TaxiNetwork.node[36] visitedPerTimestep ETV
vector 85 TaxiNetwork.node[29] visitedPerTimestep ETV
vector 86 TaxiNetwork.node[45] visitedPerTimestep ETV
vector 87 TaxiNetwork.node[21] visitedPerTimestep ETV
vector 88 TaxiNetwork.node[132] visitedPerTimestep ETV
vector 89 TaxiNetwork.node[99] visitedPerTimestep ETV
vector 90 TaxiNetwork.node[64] visitedPerTimestep ETV
vector 91 TaxiNetwork.node[69] visitedPerTimestep ETV
vector 92 TaxiNetwork.node[72] visitedPerTimestep ETV
vector 93 TaxiNetwork.node[70] visitedPerTimestep ETV
vector 94 TaxiNetwork.node[75] visitedPerTimestep ETV
vector 95 TaxiNetwork.node[143] visitedPerTimestep ETV
vector 96 TaxiNetwork.node[78] visitedPerTimestep ETV
vector 97 TaxiNetwork.node[76] visitedPerTimestep ETV
vector 98 TaxiNetwork.node[129] visitedPerTimestep ETV
vector 99 TaxiNetwork.node[127] visitedPerTimestep ETV
vector 100 TaxiNetwork.node[125] visitedPerTimestep ETV
vector 101 TaxiNetwork.node[81] visitedPerTimestep ETV
vector 102 TaxiNetwork.node[107] visitedPerTimestep ETV
vector 103 TaxiNetwork.node[134] visitedPerTimestep ETV
vector 104 TaxiNetwork.node[130] visitedPerTimestep ETV
vector 105 TaxiNetwork.node[62] visitedPerTimestep ETV
vector 106 TaxiNetwork.node[65] visitedPerTimestep ETV
vector 107 TaxiNetwork.node[60] visitedPerTimestep ETV
vector 108 TaxiNetwork.node[77] visitedPerTimestep ETV
vector 109 TaxiNetwork.node[104] visitedPerTimestep ETV
vector 110 TaxiNetwork.node[103] visitedPerTimestep ETV
vector 111 TaxiNetwork.node[26] visitedPerTimestep ETV
vector 112 TaxiNetwork.node[22] visitedPerTimestep ETV
vector 113 TaxiNetwork.node[39] visitedPerTimestep ETV
vector 114 TaxiNetwork.node[37] visitedPerTimestep ETV
vector 115 TaxiNetwork.node[74] visitedPerTimestep ETV
vector 116 TaxiNetwork.node[97] visitedPerTimestep ETV
vector 117 TaxiNetwork.node[56] visitedPerTimestep ETV
vector 118 TaxiNetwork.node[61] visitedPerTimestep ETV
vector 119 TaxiNetwork.node[110] visitedPerTimestep ETV
vector 120 TaxiNetwork.node[68] visitedPerTimestep ETV
vector 121 TaxiNetwork.node[126] visitedPerTimestep ETV
vector 122 TaxiNetwork.node[79] visitedPerTimestep ETV
vector 123 TaxiNetwork.node[128] visitedPerTimestep ETV
vector 124 TaxiNetwork.node[66] visitedPerTimestep ETV
vector 125 TaxiNetwork.node[121] visitedPerTimestep ETV
vector 126 TaxiNetwork.node[63] visitedPerTimestep ETV
vector 127 TaxiNetwork.node[131] visitedPerTimestep ETV
vector 128 TaxiNetwork.node[80] visitedPerTimestep ETV
vector 129 TaxiNetwork.node[109] visitedPerTimestep ETV
vector 130 TaxiNetwork.node[144] visitedPerTimestep ETV
vector 131 TaxiNetwork.node[73] visitedPerTimestep ETV
vector 132 TaxiNetwork.node[133] visitedPerTimestep ETV
vector 133 TaxiNetwork.node[96] visitedPerTimestep ETV
vector 134 TaxiNetwork.node[108] visitedPerTimestep ETV
vector 135 TaxiNetwork.node[42] visitedPerTimestep ETV
vector 136 TaxiNetwork.node[124] visitedPerTimestep ETV
vector 137 TaxiNetwork.node[95] visitedPerTimestep ETV
vector 138 TaxiNetwork.node[71] visitedPerTimestep ETV
vector 139 TaxiNetwork.node[41] visitedPerTimestep ETV
vector 140 TaxiNetwork.node[38] visitedPerTimestep ETV
vector 141 TaxiNetwork.node[28] visitedPerTimestep ETV
0	1	0	1
0	134	0	69
0	183	0	82
0	318	0	110
0	429	0	115
0	619	0	124
0	653	0	129
0	669	0	130
0	710	0	131
0	760	0	133
0	1030	0	134
0	1194	0	136
0	1238	0	136
0	1316	0	136
0	1454	0	138
0	1634	0	138
0	1840	0	138
0	1848	0	138
0	2010	0	139
0	2028	0	139
0	2058	0	139
0	2074	0	139
0	2140	0	139
0	2184	0	139
0	2188	0	139
0	2264	0	139
0	2272	0	139
0	2330	0	139
0	2352	0	139
0	2482	0	139
0	2694	0	139
0	2910	0	139
0	2992	0	139
0	3336	0	139
0	4328	0	139
0	4480	0	139
0	4624	0	139
0	4700	0	139
0	4712	0	139
0	4948	0	139
0	5192	0	139
0	5260	0	139
0	6112	0	140
0	6720	0	140
0	7488	0	140
0	8680	0	141
0	9784	0	141
0	10448	0	141
0	10664	0	144
0	11296	0	144
0	11784	0	144
0	12680	0	144
0	13064	0	144
0	13136	0	144
0	13360	0	144
0	14976	0	144
0	15096	0	144
0	15192	0	144
0	15784	0	144
0	17320	0	144
0	17528	0	144
0	17608	0	144
1	2	0	2
1	135	0	69
1	200	0	85
1	312	0	110
1	494	0	119
1	566	0	119
1	582	0	119
1	601	0	124
1	682	0	131
1	769	0	133
1	778	0	133
1	817	0	133
1	1162	0	136
1	1252	0	136
1	1624	0	138
1	1828	0	138
1	1914	0	139
1	1926	0	139
1	1982	0	139
1	2006	0	139
1	2098	0	139
1	2120	0	139
1	2304	0	139
1	2332	0	139
1	2698	0	139
1	2724	0	139
1	2958	0	139
1	4308	0	139
1	4460	0	139
1	4544	0	139
1	4644	0	139
1	4660	0	139
1	4760	0	139
1	5100	0	139
1	5128	0	139
1	5468	0	140
1	5556	0	140
1	5596	0	140
1	7440	0	140
1	7568	0	140
1	7656	0	140
1	7840	0	141
1	7864	0	141
1	8512	0	141
1	8600	0	141
1	10512	0	141
1	11192	0	144
1	11272	0	144
1	11400	0	144
1	12704	0	144
1	12824	0	144
1	12848	0	144
1	12912	0	144
1	13776	0	144
2	3	0	3
2	294	0	109
2	361	0	114
2	495	0	119
2	621	0	124
2	681	0	131
2	697	0	131
2	751	0	133
2	821	0	133
2	851	0	133
2	887	0	133
2	938	0	134
2	961	0	134
2	966	0	134
2	1134	0	136
2	1142	0	136
2	1390	0	138
2	1430	0	138
2	1638	0	138
2	1750	0	138
2	1776	0	138
2	1960	0	139
2	2198	0	139
2	2212	0	139
2	2878	0	139
2	2974	0	139
2	2996	0	139
2	3164	0	139
2	3416	0	139
2	3900	0	139
2	4068	0	139
2	4152	0	139
2	4424	0	139
2	5440	0	140
2	5492	0	140
2	5552	0	140
2	5560	0	140
2	5588	0	140
2	5932	0	140
2	6008	0	140
2	6516	0	140
2	6860	0	140
2	6988	0	140
2	8152	0	141
2	8272	0	141
2	8328	0	141
2	8728	0	141
2	10144	0	141
2	10560	0	144
2	10768	0	144
2	10888	0	144
2	10904	0	144
2	11416	0	144
2	12032	0	144
2	13592	0	144
2	13624	0	144
2	14952	0	144
2	16840	0	144
2	17096	0	144
2	18696	0	144
3	4	0	4
3	116	0	65
3	193	0	85
3	231	0	88
3	301	0	110
3	320	0	110
3	649	0	129
3	673	0	130
3	705	0	131
3	758	0	133
3	818	0	133
3	904	0	133
3	1072	0	134
3	1106	0	136
3	1158	0	136
3	1260	0	136
3	1480	0	138
3	1570	0	138
3	1722	0	138
3	2024	0	139
3	2068	0	139
3	2180	0	139
3	2268	0	139
3	2278	0	139
3	2356	0	139
3	2456	0	139
3	2496	0	139
3	2732	0	139
3	3108	0	139
3	3268	0	139
3	3484	0	139
3	3560	0	139
3	3780	0	139
3	4000	0	139
3	4596	0	139
3	4632	0	139
3	4716	0	139
3	4772	0	139
3	4784	0	139
3	4828	0	139
3	4904	0	139
3	5116	0	139
3	5320	0	139
3	5508	0	140
3	5668	0	140
3	7008	0	140
3	8528	0	141
3	9016	0	141
3	9648	0	141
3	10032	0	141
3	10056	0	141
3	11000	0	144
3	11368	0	144
3	11560	0	144
3	11648	0	144
3	12368	0	144
3	12560	0	144
3	12616	0	144
3	12832	0	144
3	13024	0	144
3	14208	0	144
3	14672	0	144
3	14848	0	144
3	15560	0	144
3	17496	0	144
3	17560	0	144
4	5	0	5
4	64	0	36
4	241	0	88
4	390	0	114
4	515	0	119
4	531	0	119
4	609	0	124
4	661	0	130
4	825	0	133
4	856	0	133
4	872	0	133
4	967	0	134
4	1012	0	134
4	1314	0	136
4	1436	0	138
4	1476	0	138
4	1592	0	138
4	1650	0	138
4	1674	0	138
4	1692	0	138
4	1836	0	138
4	1942	0	139
4	2014	0	139
4	2258	0	139
4	2280	0	139
4	2296	0	139
4	2646	0	139
4	2954	0	139
4	3152	0	139
4	3344	0	139
4	3460	0	139
4	3704	0	139
4	3784	0	139
4	3972	0	139
4	4420	0	139
4	4684	0	139
4	4740	0	139
4	4816	0	139
4	4868	0	139
4	5208	0	139
4	5324	0	139
4	5344	0	139
4	5496	0	140
4	5724	0	140
4	5796	0	140
4	5940	0	140
4	5976	0	140
4	6380	0	140
4	6832	0	140
4	7504	0	140
4	7648	0	140
4	8488	0	141
4	8632	0	141
4	9416	0	141
4	9512	0	141
4	11312	0	144
4	11344	0	144
4	12512	0	144
4	13128	0	144
4	13160	0	144
4	13264	0	144
4	14232	0	144
4	14448	0	144
4	17192	0	144
4	17752	0	144
5	6	0	6
5	400	0	114
5	420	0	115
5	455	0	115
5	498	0	119
5	539	0	119
5	664	0	130
5	712	0	131
5	752	0	133
5	795	0	133
5	797	0	133
5	834	0	133
5	1622	0	138
5	1878	0	138
5	2046	0	139
5	2404	0	139
5	2830	0	139
5	2838	0	139
5	2934	0	139
5	4156	0	139
5	5120	0	139
5	5540	0	140
5	5720	0	140
5	5820	0	140
5	6520	0	140
5	6788	0	140
5	6808	0	140
5	7288	0	140
5	7664	0	140
5	7928	0	141
5	8640	0	141
5	10896	0	144
5	12496	0	144
5	12608	0	144
5	13112	0	144
5	13648	0	144
5	14832	0	144
5	15464	0	144
6	7	0	7
6	74	0	39
6	205	0	86
6	326	0	110
6	399	0	114
6	421	0	115
6	481	0	117
6	550	0	119
6	570	0	119
6	572	0	119
6	711	0	131
6	773	0	133
6	833	0	133
6	897	0	133
6	995	0	134
6	1484	0	138
6	1766	0	138
6	1958	0	139
6	2186	0	139
6	2234	0	139
6	2444	0	139
6	2516	0	139
6	2520	0	139
6	2710	0	139
6	2760	0	139
6	3392	0	139
6	3824	0	139
6	3996	0	139
6	4492	0	139
6	4512	0	139
6	4676	0	139
6	4932	0	139
6	5244	0	139
6	5332	0	139
6	5464	0	140
6	6128	0	140
6	6456	0	140
6	6536	0	140
6	6588	0	140
6	6996	0	140
6	8000	0	141
6	8128	0	141
6	9000	0	141
6	10504	0	141
6	10592	0	144
6	10944	0	144
6	11536	0	144
6	11624	0	144
6	11704	0	144
6	13656	0	144
6	13784	0	144
6	14144	0	144
6	15544	0	144
6	18344	0	144
6	18648	0	144
7	8	0	8
7	16	0	15
7	68	0	38
7	88	0	52
7	132	0	69
7	452	0	115
7	648	0	129
7	779	0	133
7	781	0	133
7	783	0	133
7	812	0	133
7	814	0	133
7	1112	0	136
7	1376	0	138
7	1386	0	138
7	1556	0	138
7	1582	0	138
7	1994	0	139
7	2110	0	139
7	2334	0	139
7	2464	0	139
7	2712	0	139
7	4572	0	139
7	4720	0	139
7	4840	0	139
7	6124	0	140
7	6136	0	140
7	6364	0	140
7	6372	0	140
7	6408	0	140
7	7432	0	140
7	7448	0	140
7	8048	0	141
7	10288	0	141
7	10632	0	144
7	10936	0	144
7	11976	0	144
7	12928	0	144
7	13544	0	144
7	13560	0	144
7	14032	0	144
7	14176	0	144
7	17000	0	144
7	18536	0	144
8	9	0	9
8	986	0	134
8	3044	0	139
8	6412	0	140
8	6420	0	140
8	6652	0	140
8	11240	0	144
9	10	0	10
9	150	0	73
9	469	0	117
9	537	0	119
9	647	0	129
9	901	0	133
9	987	0	134
9	1116	0	136
9	1266	0	136
9	2108	0	139
9	2372	0	139
9	3072	0	139
9	3328	0	139
9	4608	0	139
9	4800	0	139
9	4836	0	139
9	4888	0	139
9	6400	0	140
9	6676	0	140
9	6736	0	140
9	8056	0	141
9	11232	0	144
9	13392	0	144
9	13864	0	144
9	17144	0	144
10	11	0	11
10	237	0	88
10	338	0	111
10	491	0	119
10	563	0	119
10	569	0	119
10	576	0	119
10	838	0	133
10	941	0	134
10	998	0	134
10	1118	0	136
10	1240	0	136
10	1264	0	136
10	1294	0	136
10	1392	0	138
10	1562	0	138
10	1720	0	138
10	1758	0	138
10	1834	0	138
10	1852	0	138
10	2190	0	139
10	2416	0	139
10	2902	0	139
10	3356	0	139
10	3400	0	139
10	3856	0	139
10	3952	0	139
10	4112	0	139
10	4316	0	139
10	4528	0	139
10	4536	0	139
10	4588	0	139
10	4628	0	139
10	4848	0	139
10	4940	0	139
10	4960	0	139
10	5544	0	140
10	5576	0	140
10	6360	0	140
10	6544	0	140
10	6812	0	140
10	7240	0	140
10	7296	0	140
10	7544	0	140
10	7720	0	140
10	8136	0	141
10	8216	0	141
10	8368	0	141
10	8440	0	141
10	10216	0	141
10	11016	0	144
10	11128	0	144
10	11208	0	144
10	11304	0	144
10	11336	0	144
10	12296	0	144
10	12352	0	144
10	12688	0	144
10	13016	0	144
10	13216	0	144
10	14664	0	144
10	15016	0	144
10	17304	0	144
10	17672	0	144
11	12	0	12
11	195	0	85
11	245	0	88
11	407	0	114
11	435	0	115
11	577	0	119
11	696	0	131
11	761	0	133
11	827	0	133
11	1010	0	134
11	1358	0	138
11	1492	0	138
11	1626	0	138
11	1636	0	138
11	1724	0	138
11	1870	0	138
11	1998	0	139
11	2060	0	139
11	2080	0	139
11	2096	0	139
11	2260	0	139
11	2354	0	139
11	2358	0	139
11	2438	0	139
11	2668	0	139
11	2736	0	139
11	3184	0	139
11	3212	0	139
11	3412	0	139
11	3468	0	139
11	4476	0	139
11	4744	0	139
11	4956	0	139
11	5564	0	140
11	5696	0	140
11	5776	0	140
11	6384	0	140
11	6476	0	140
11	7080	0	140
11	7912	0	141
11	8032	0	141
11	8952	0	141
11	10136	0	141
11	11112	0	144
11	12320	0	144
11	12880	0	144
11	14088	0	144
11	14784	0	144
11	14936	0	144
11	15240	0	144
12	13	0	13
12	222	0	88
12	244	0	88
12	391	0	114
12	423	0	115
12	437	0	115
12	483	0	118
12	640	0	127
12	690	0	131
12	835	0	133
12	1000	0	134
12	1180	0	136
12	1470	0	138
12	1676	0	138
12	1782	0	138
12	2038	0	139
12	2218	0	139
12	2300	0	139
12	2478	0	139
12	2494	0	139
12	2938	0	139
12	3024	0	139
12	3116	0	139
12	3136	0	139
12	3364	0	139
12	4032	0	139
12	4100	0	139
12	4140	0	139
12	4520	0	139
12	4952	0	139
12	5404	0	140
12	5624	0	140
12	6560	0	140
12	7304	0	140
12	7576	0	140
12	8360	0	141
12	8416	0	141
12	8448	0	141
12	8672	0	141
12	8928	0	141
12	9680	0	141
12	10264	0	141
12	10528	0	142
12	11488	0	144
12	11920	0	144
12	11968	0	144
12	12952	0	144
12	13096	0	144
12	13576	0	144
12	14160	0	144
12	14768	0	144
12	15512	0	144
12	17656	0	144
13	14	0	14
13	308	0	110
13	340	0	111
13	354	0	114
13	360	0	114
13	521	0	119
13	662	0	130
13	787	0	133
13	790	0	133
13	867	0	133
13	1132	0	136
13	1172	0	136
13	1276	0	136
13	1616	0	138
13	1952	0	139
13	2220	0	139
13	2804	0	139
13	3308	0	139
13	3360	0	139
13	3904	0	139
13	3912	0	139
13	4084	0	139
13	4456	0	139
13	4732	0	139
13	5224	0	139
13	5408	0	140
13	5536	0	140
13	5548	0	140
13	5636	0	140
13	5664	0	140
13	8104	0	141
13	9752	0	141
13	10536	0	143
13	11328	0	144
13	11448	0	144
13	11608	0	144
13	11664	0	144
13	11688	0	144
13	12472	0	144
13	12736	0	144
13	12840	0	144
13	13456	0	144
13	16472	0	144
13	17848	0	144
14	15	0	15
14	323	0	110
14	443	0	115
14	477	0	117
14	499	0	119
14	571	0	119
14	772	0	133
14	791	0	133
14	876	0	133
14	893	0	133
14	968	0	134
14	1152	0	136
14	1246	0	136
14	1278	0	136
14	1684	0	138
14	1790	0	138
14	1898	0	138
14	1930	0	139
14	2040	0	139
14	2084	0	139
14	2458	0	139
14	2656	0	139
14	2776	0	139
14	2866	0	139
14	3208	0	139
14	3700	0	139
14	3884	0	139
14	3916	0	139
14	4724	0	139
14	4752	0	139
14	5364	0	140
14	5452	0	140
14	6120	0	140
14	6556	0	140
14	6728	0	140
14	6840	0	140
14	6924	0	140
14	8336	0	141
14	8472	0	141
14	9800	0	141
14	10640	0	144
14	10688	0	144
14	11040	0	144
14	11552	0	144
14	12240	0	144
14	12264	0	144
14	13232	0	144
14	13496	0	144
14	14736	0	144
14	15592	0	144
14	17864	0	144
14	18360	0	144
15	17	0	16
15	65	0	36
15	184	0	82
15	233	0	88
15	296	0	109
15	304	0	110
15	422	0	115
15	450	0	115
15	520	0	119
15	617	0	124
15	675	0	130
15	798	0	133
15	926	0	134
15	1340	0	138
15	1354	0	138
15	1690	0	138
15	1892	0	138
15	1924	0	139
15	2082	0	139
15	2116	0	139
15	2142	0	139
15	2146	0	139
15	2292	0	139
15	2368	0	139
15	2446	0	139
15	2468	0	139
15	2488	0	139
15	2640	0	139
15	2748	0	139
15	2968	0	139
15	2972	0	139
15	3220	0	139
15	3232	0	139
15	3564	0	139
15	3688	0	139
15	3764	0	139
15	3992	0	139
15	5252	0	139
15	5608	0	140
15	5728	0	140
15	6032	0	140
15	6204	0	140
15	6444	0	140
15	9528	0	141
15	10200	0	141
15	11872	0	144
15	13240	0	144
15	14040	0	144
15	14168	0	144
15	14408	0	144
15	14432	0	144
15	15064	0	144
15	17688	0	144
15	18568	0	144
15	18600	0	144
16	18	0	17
16	23	0	21
16	330	0	110
16	509	0	119
16	536	0	119
16	900	0	133
16	1114	0	136
16	1182	0	136
16	1268	0	136
16	1576	0	138
16	2518	0	139
16	4576	0	139
16	5676	0	140
16	6664	0	140
16	6740	0	140
16	10272	0	141
16	10800	0	144
16	12776	0	144
16	17016	0	144
16	18552	0	144
17	19	0	18
17	72	0	38
17	149	0	73
17	907	0	133
17	984	0	134
17	1110	0	136
17	1378	0	138
17	3076	0	139
17	3380	0	139
17	3536	0	139
17	3544	0	139
17	3832	0	139
17	4580	0	139
17	6416	0	140
17	13800	0	144
17	14008	0	144
17	14888	0	144
18	20	0	19
18	148	0	73
18	334	0	110
18	985	0	134
18	1666	0	138
18	3040	0	139
18	3540	0	139
18	4612	0	139
18	6048	0	140
18	13528	0	144
18	14872	0	144
18	18200	0	144
19	21	0	20
19	24	0	21
19	146	0	73
19	332	0	110
19	375	0	114
19	377	0	114
19	688	0	131
19	1864	0	138
19	2092	0	139
19	2414	0	139
19	2746	0	139
19	3548	0	139
19	3828	0	139
19	4104	0	139
19	4144	0	139
19	4296	0	139
19	4844	0	139
19	6352	0	140
19	6424	0	140
19	6656	0	140
19	10720	0	144
19	12784	0	144
19	13520	0	144
19	13856	0	144
19	18248	0	144
20	22	0	21
20	58	0	32
20	70	0	38
20	451	0	115
20	676	0	130
20	799	0	133
20	898	0	133
20	927	0	134
20	996	0	134
20	1372	0	138
20	2466	0	139
20	3752	0	139
20	3760	0	139
20	10280	0	141
21	25	0	22
21	470	0	117
21	534	0	119
21	906	0	133
21	1184	0	136
21	1866	0	138
21	2756	0	139
21	3048	0	139
21	10808	0	144
21	11248	0	144
21	13400	0	144
21	13536	0	144
21	13552	0	144
21	14864	0	144
22	26	0	23
22	128	0	68
22	144	0	73
22	367	0	114
22	506	0	119
22	533	0	119
22	782	0	133
22	896	0	133
22	925	0	134
22	1070	0	134
22	1280	0	136
22	1560	0	138
22	1580	0	138
22	1586	0	138
22	1988	0	139
22	3064	0	139
22	3228	0	139
22	3444	0	139
22	3520	0	139
22	3696	0	139
22	3744	0	139
22	4108	0	139
22	4300	0	139
22	4524	0	139
22	5184	0	139
22	9720	0	141
22	10712	0	144
22	10816	0	144
22	11256	0	144
22	11984	0	144
22	12760	0	144
22	13208	0	144
22	13384	0	144
22	13688	0	144
22	14752	0	144
22	15496	0	144
23	27	0	24
23	59	0	32
23	331	0	110
23	376	0	114
23	665	0	130
23	811	0	133
23	1578	0	138
23	2376	0	139
23	2638	0	139
23	3224	0	139
23	3440	0	139
23	10792	0	144
24	28	0	25
24	30	0	26
24	57	0	32
24	800	0	133
25	29	0	26
25	36	0	31
25	42	0	32
25	55	0	32
25	805	0	133
26	31	0	27
26	46	0	32
26	56	0	32
26	2840	0	139
26	2844	0	139
26	15400	0	144
26	15448	0	144
26	15656	0	144
27	32	0	28
27	38	0	31
27	48	0	32
27	50	0	32
27	53	0	32
27	801	0	133
27	803	0	133
27	807	0	133
27	809	0	133
27	15416	0	144
28	33	0	29
28	39	0	31
28	43	0	32
28	52	0	32
28	2842	0	139
29	34	0	30
29	37	0	31
29	40	0	31
29	45	0	32
29	47	0	32
29	49	0	32
29	51	0	32
29	3428	0	139
29	3756	0	139
29	15432	0	144
30	35	0	31
30	54	0	32
30	804	0	133
30	808	0	133
30	3432	0	139
31	41	0	32
31	44	0	32
31	806	0	133
32	60	0	33
32	69	0	38
32	113	0	64
32	505	0	119
32	538	0	119
32	770	0	133
32	784	0	133
32	944	0	134
32	1254	0	136
32	1448	0	138
32	1460	0	138
32	1876	0	138
32	2066	0	139
32	2114	0	139
32	2896	0	139
32	3052	0	139
32	4048	0	139
32	4132	0	139
32	4540	0	139
32	4900	0	139
32	5104	0	139
32	5360	0	139
32	5620	0	140
32	5672	0	140
32	6568	0	140
32	7768	0	140
32	8880	0	141
32	9344	0	141
32	9736	0	141
32	11384	0	144
32	12624	0	144
32	12696	0	144
32	12864	0	144
32	12936	0	144
32	12976	0	144
32	13640	0	144
32	14696	0	144
32	14712	0	144
32	14840	0	144
32	14896	0	144
32	14992	0	144
32	17032	0	144
33	61	0	34
33	71	0	38
33	510	0	119
33	813	0	133
33	899	0	133
33	997	0	134
33	2144	0	139
33	2374	0	139
33	2636	0	139
33	2750	0	139
33	3068	0	139
33	4896	0	139
33	5684	0	140
33	6660	0	140
33	6672	0	140
33	11136	0	144
33	13408	0	144
33	13568	0	144
34	62	0	35
34	147	0	73
34	234	0	88
34	335	0	110
34	449	0	115
34	453	0	115
34	689	0	131
34	902	0	133
34	905	0	133
34	1108	0	136
34	1186	0	136
34	1270	0	136
34	1630	0	138
34	2174	0	139
34	2424	0	139
34	2486	0	139
34	2632	0	139
34	2752	0	139
34	3036	0	139
34	3324	0	139
34	3376	0	139
34	3388	0	139
34	4076	0	139
34	4616	0	139
34	4832	0	139
34	4892	0	139
34	4928	0	139
34	5372	0	140
34	5612	0	140
34	5688	0	140
34	6044	0	140
34	8120	0	141
34	8520	0	141
34	9656	0	141
34	12768	0	144
34	13200	0	144
34	13792	0	144
34	13992	0	144
34	14024	0	144
34	14376	0	144
34	14816	0	144
34	14856	0	144
34	14880	0	144
34	17128	0	144
35	63	0	36
35	104	0	61
35	124	0	68
35	207	0	87
35	249	0	88
35	252	0	88
35	369	0	114
35	380	0	114
35	468	0	117
35	548	0	119
35	646	0	129
35	704	0	131
35	953	0	134
35	1432	0	138
35	1584	0	138
35	1662	0	138
35	1772	0	138
35	1826	0	138
35	1862	0	138
35	1874	0	138
35	2132	0	139
35	2780	0	139
35	2834	0	139
35	2858	0	139
35	2956	0	139
35	2982	0	139
35	3004	0	139
35	3480	0	139
35	3524	0	139
35	3816	0	139
35	4464	0	139
35	4532	0	139
35	4776	0	139
35	4796	0	139
35	5096	0	139
35	5132	0	139
35	5188	0	139
35	5336	0	139
35	5400	0	140
35	5904	0	140
35	6936	0	140
35	6948	0	140
35	7872	0	141
35	8304	0	141
35	8992	0	141
35	9608	0	141
35	10088	0	141
35	11064	0	144
35	11264	0	144
35	12184	0	144
35	12792	0	144
35	13256	0	144
35	13512	0	144
35	13584	0	144
35	14240	0	144
35	14368	0	144
35	14384	0	144
35	14656	0	144
35	18296	0	144
36	66	0	37
36	112	0	64
36	130	0	69
36	247	0	88
36	374	0	114
36	444	0	115
36	473	0	117
36	490	0	119
36	561	0	119
36	564	0	119
36	747	0	133
36	908	0	133
36	924	0	134
36	958	0	134
36	977	0	134
36	1062	0	134
36	1178	0	136
36	1740	0	138
36	1752	0	138
36	2072	0	139
36	2104	0	139
36	2112	0	139
36	2426	0	139
36	2484	0	139
36	2670	0	139
36	2692	0	139
36	2778	0	139
36	3060	0	139
36	3132	0	139
36	3512	0	139
36	3836	0	139
36	3852	0	139
36	4064	0	139
36	4072	0	139
36	4128	0	139
36	4168	0	139
36	4568	0	139
36	4584	0	139
36	4980	0	139
36	5376	0	140
36	6028	0	140
36	6324	0	140
36	6600	0	140
36	7088	0	140
36	7608	0	140
36	8856	0	141
36	8872	0	141
36	9616	0	141
36	9664	0	141
36	9712	0	141
36	10624	0	144
36	12224	0	144
36	12344	0	144
36	14064	0	144
36	15848	0	144
36	17112	0	144
36	17416	0	144
36	18232	0	144
36	18376	0	144
36	18440	0	144
37	67	0	38
37	127	0	68
37	168	0	80
37	224	0	88
37	290	0	109
37	303	0	110
37	319	0	110
37	327	0	110
37	371	0	114
37	436	0	115
37	454	0	115
37	466	0	117
37	545	0	119
37	562	0	119
37	614	0	124
37	667	0	130
37	786	0	133
37	979	0	134
37	1146	0	136
37	1660	0	138
37	1754	0	138
37	1806	0	138
37	1922	0	139
37	1944	0	139
37	1950	0	139
37	2076	0	139
37	2122	0	139
37	2216	0	139
37	2328	0	139
37	2498	0	139
37	2644	0	139
37	2704	0	139
37	2714	0	139
37	2836	0	139
37	2862	0	139
37	2876	0	139
37	3160	0	139
37	3332	0	139
37	3768	0	139
37	4060	0	139
37	4924	0	139
37	5584	0	140
37	5616	0	140
37	5640	0	140
37	5972	0	140
37	6168	0	140
37	6428	0	140
37	6472	0	140
37	7408	0	140
37	8744	0	141
37	8984	0	141
37	9768	0	141
37	10776	0	144
37	10928	0	144
37	11120	0	144
37	12288	0	144
37	12600	0	144
37	12872	0	144
37	13184	0	144
37	13376	0	144
37	14456	0	144
37	14960	0	144
37	15160	0	144
37	17768	0	144
37	18312	0	144
38	73	0	39
38	185	0	82
38	235	0	88
38	321	0	110
38	329	0	110
38	368	0	114
38	471	0	117
38	507	0	119
38	511	0	119
38	535	0	119
38	877	0	133
38	930	0	134
38	934	0	134
38	1068	0	134
38	1244	0	136
38	1258	0	136
38	1382	0	138
38	1668	0	138
38	2054	0	139
38	2492	0	139
38	2634	0	139
38	2758	0	139
38	3056	0	139
38	3504	0	139
38	3552	0	139
38	4052	0	139
38	4320	0	139
38	5176	0	139
38	6404	0	140
38	6576	0	140
38	6648	0	140
38	6968	0	140
38	7232	0	140
38	7848	0	141
38	8752	0	141
38	9080	0	141
38	10600	0	144
38	11144	0	144
38	11376	0	144
38	13416	0	144
38	14016	0	144
38	15528	0	144
39	75	0	40
39	97	0	58
39	123	0	68
39	172	0	80
39	246	0	88
39	295	0	109
39	362	0	114
39	492	0	119
39	581	0	119
39	695	0	131
39	820	0	133
39	892	0	133
39	950	0	134
39	999	0	134
39	1304	0	136
39	1482	0	138
39	1760	0	138
39	1764	0	138
39	1788	0	138
39	1872	0	138
39	2002	0	139
39	2126	0	139
39	2252	0	139
39	2294	0	139
39	2450	0	139
39	2522	0	139
39	2722	0	139
39	3084	0	139
39	3148	0	139
39	3408	0	139
39	3592	0	139
39	3944	0	139
39	4668	0	139
39	4768	0	139
39	4820	0	139
39	4916	0	139
39	4944	0	139
39	5456	0	140
39	5484	0	140
39	6940	0	140
39	7032	0	140
39	7584	0	140
39	8296	0	141
39	8424	0	141
39	8592	0	141
39	8616	0	141
39	9672	0	141
39	10968	0	144
39	13328	0	144
39	13976	0	144
39	14728	0	144
39	17336	0	144
40	76	0	41
40	107	0	62
40	288	0	109
40	299	0	109
40	311	0	110
40	441	0	115
40	516	0	119
40	579	0	119
40	701	0	131
40	793	0	133
40	1486	0	138
40	1778	0	138
40	1794	0	138
40	1910	0	139
40	1936	0	139
40	1956	0	139
40	2030	0	139
40	2232	0	139
40	2242	0	139
40	2306	0	139
40	2420	0	139
40	2766	0	139
40	2912	0	139
40	4412	0	139
40	4472	0	139
40	4976	0	139
40	5152	0	139
40	5532	0	140
40	6528	0	140
40	6596	0	140
40	6944	0	140
40	7480	0	140
40	9192	0	141
40	10120	0	141
40	10208	0	141
40	10472	0	141
40	10696	0	144
40	11584	0	144
40	11616	0	144
40	12232	0	144
40	13056	0	144
40	13440	0	144
40	16296	0	144
40	17720	0	144
40	18664	0	144
40	18728	0	144
41	77	0	42
41	91	0	54
41	170	0	80
41	298	0	109
41	314	0	110
41	433	0	115
41	655	0	129
41	668	0	130
41	717	0	131
41	952	0	134
41	1018	0	134
41	1054	0	134
41	1452	0	138
41	1494	0	138
41	1696	0	138
41	1738	0	138
41	1786	0	138
41	2986	0	139
41	4340	0	139
41	4652	0	139
41	5216	0	139
41	5280	0	139
41	5292	0	139
41	5304	0	139
41	5524	0	140
41	6280	0	140
41	6704	0	140
41	7616	0	140
41	8696	0	141
41	8832	0	141
41	9640	0	141
41	13032	0	144
41	14968	0	144
41	15800	0	144
41	16952	0	144
41	17064	0	144
41	17912	0	144
42	78	0	43
42	100	0	60
42	115	0	65
42	142	0	72
42	154	0	75
42	167	0	80
42	169	0	80
42	324	0	110
42	370	0	114
42	447	0	115
42	464	0	117
42	474	0	117
42	519	0	119
42	583	0	119
42	691	0	131
42	708	0	131
42	829	0	133
42	831	0	133
42	951	0	134
42	1002	0	134
42	1568	0	138
42	1728	0	138
42	1748	0	138
42	1846	0	138
42	1900	0	138
42	2102	0	139
42	2696	0	139
42	2802	0	139
42	2812	0	139
42	2856	0	139
42	2860	0	139
42	2884	0	139
42	2966	0	139
42	3112	0	139
42	3260	0	139
42	3352	0	139
42	3464	0	139
42	4964	0	139
42	5220	0	139
42	5276	0	139
42	5708	0	140
42	6012	0	140
42	6172	0	140
42	6180	0	140
42	6604	0	140
42	7496	0	140
42	8024	0	141
42	8176	0	141
42	8408	0	141
42	8864	0	141
42	9536	0	141
42	10080	0	141
42	11360	0	144
42	11504	0	144
42	13296	0	144
42	13448	0	144
42	13616	0	144
42	14096	0	144
42	18328	0	144
43	79	0	44
43	121	0	68
43	141	0	72
43	177	0	82
43	189	0	83
43	196	0	85
43	201	0	85
43	418	0	115
43	603	0	124
43	792	0	133
43	822	0	133
43	826	0	133
43	830	0	133
43	973	0	134
43	1102	0	136
43	1416	0	138
43	1426	0	138
43	1614	0	138
43	1688	0	138
43	1800	0	138
43	1814	0	138
43	1832	0	138
43	1938	0	139
43	2036	0	139
43	2224	0	139
43	2284	0	139
43	2500	0	139
43	2524	0	139
43	2654	0	139
43	2728	0	139
43	2904	0	139
43	2994	0	139
43	3012	0	139
43	3284	0	139
43	3772	0	139
43	5384	0	140
43	5420	0	140
43	5436	0	140
43	5968	0	140
43	9400	0	141
43	9792	0	141
43	13968	0	144
43	14920	0	144
43	15048	0	144
43	15256	0	144
43	15768	0	144
44	80	0	45
44	345	0	113
44	350	0	114
44	557	0	119
44	874	0	133
44	1166	0	136
44	2152	0	139
44	2386	0	139
44	2502	0	139
44	3312	0	139
44	3612	0	139
44	3660	0	139
44	4432	0	139
44	5788	0	140
44	7272	0	140
44	7944	0	141
44	7984	0	141
44	9480	0	141
44	9568	0	141
44	13472	0	144
44	15304	0	144
44	16568	0	144
44	16776	0	144
45	81	0	46
45	202	0	85
45	215	0	88
45	242	0	88
45	293	0	109
45	347	0	113
45	866	0	133
45	1088	0	136
45	1298	0	136
45	1648	0	138
45	1882	0	138
45	1888	0	138
45	1968	0	139
45	2316	0	139
45	2388	0	139
45	2650	0	139
45	2784	0	139
45	2828	0	139
45	2852	0	139
45	3252	0	139
45	3604	0	139
45	3668	0	139
45	3808	0	139
45	5920	0	140
45	6792	0	140
45	6804	0	140
45	7328	0	140
45	7808	0	141
45	9552	0	141
45	10384	0	141
45	12504	0	144
45	13120	0	144
45	13944	0	144
45	15704	0	144
45	16616	0	144
45	16680	0	144
46	82	0	47
46	214	0	88
46	458	0	115
46	554	0	119
46	605	0	124
46	1422	0	138
46	2154	0	139
46	2848	0	139
46	3628	0	139
46	3648	0	139
46	6796	0	140
46	7320	0	140
46	10408	0	141
46	15688	0	144
46	15736	0	144
46	16552	0	144
46	16744	0	144
47	83	0	48
47	163	0	79
47	198	0	85
47	459	0	115
47	502	0	119
47	527	0	119
47	555	0	119
47	871	0	133
47	1090	0	136
47	1096	0	136
47	1906	0	139
47	1964	0	139
47	2324	0	139
47	2390	0	139
47	2400	0	139
47	2850	0	139
47	3296	0	139
47	3576	0	139
47	3712	0	139
47	5784	0	140
47	5992	0	140
47	6856	0	140
47	7264	0	140
47	8232	0	141
47	10368	0	141
47	11760	0	144
47	13704	0	144
47	15272	0	144
47	16488	0	144
47	16536	0	144
48	84	0	49
48	307	0	110
48	404	0	114
48	409	0	114
48	413	0	115
48	523	0	119
48	777	0	133
48	861	0	133
48	885	0	133
48	1368	0	138
48	1394	0	138
48	1640	0	138
48	1802	0	138
48	1820	0	138
48	1928	0	139
48	1932	0	139
48	1972	0	139
48	2196	0	139
48	2312	0	139
48	2664	0	139
48	3240	0	139
48	3256	0	139
48	3272	0	139
48	3644	0	139
48	3656	0	139
48	3956	0	139
48	4096	0	139
48	5712	0	140
48	7312	0	140
48	8352	0	141
48	9464	0	141
48	10992	0	144
48	11600	0	144
48	11928	0	144
48	12208	0	144
48	13152	0	144
48	17640	0	144
49	85	0	50
49	240	0	88
49	610	0	124
49	965	0	134
49	972	0	134
49	1318	0	136
49	1656	0	138
49	1712	0	138
49	1716	0	138
49	1762	0	138
49	1918	0	139
49	1948	0	139
49	2248	0	139
49	2382	0	139
49	2734	0	139
49	3340	0	139
49	3472	0	139
49	3728	0	139
49	4332	0	139
49	4748	0	139
49	5212	0	139
49	5396	0	140
49	5476	0	140
49	5500	0	140
49	5572	0	140
49	5604	0	140
49	6708	0	140
49	6980	0	140
49	7472	0	140
49	7552	0	140
49	7592	0	140
49	8168	0	141
49	8704	0	141
49	9096	0	141
49	9168	0	141
49	9824	0	141
49	10328	0	141
49	10344	0	141
49	10856	0	144
49	12176	0	144
49	12272	0	144
49	13880	0	144
49	14048	0	144
49	14392	0	144
49	15208	0	144
49	17464	0	144
50	86	0	51
50	186	0	82
50	209	0	87
50	228	0	88
50	612	0	124
50	771	0	133
50	815	0	133
50	854	0	133
50	959	0	134
50	974	0	134
50	976	0	134
50	1670	0	138
50	1732	0	138
50	1768	0	138
50	1824	0	138
50	1946	0	139
50	2012	0	139
50	2026	0	139
50	2130	0	139
50	2134	0	139
50	2182	0	139
50	2240	0	139
50	2628	0	139
50	2872	0	139
50	2930	0	139
50	2964	0	139
50	3556	0	139
50	3840	0	139
50	3940	0	139
50	4812	0	139
50	5312	0	139
50	6156	0	140
50	6200	0	140
50	6716	0	140
50	6964	0	140
50	7024	0	140
50	9432	0	141
50	10096	0	141
50	11168	0	144
50	11352	0	144
50	11912	0	144
50	13312	0	144
50	13504	0	144
50	14704	0	144
50	15128	0	144
50	15624	0	144
50	16280	0	144
50	17048	0	144
50	17240	0	144
50	18584	0	144
51	87	0	52
51	106	0	62
51	111	0	64
51	125	0	68
51	406	0	114
51	445	0	115
51	448	0	115
51	543	0	119
51	585	0	119
51	620	0	124
51	641	0	127
51	709	0	131
51	788	0	133
51	842	0	133
51	1384	0	138
51	1402	0	138
51	1406	0	138
51	1558	0	138
51	1590	0	138
51	1632	0	138
51	1896	0	138
51	1986	0	139
51	2194	0	139
51	2528	0	139
51	2716	0	139
51	3372	0	139
51	3720	0	139
51	3796	0	139
51	3988	0	139
51	4056	0	139
51	4468	0	139
51	4620	0	139
51	5356	0	139
51	5512	0	140
51	5568	0	140
51	5764	0	140
51	5928	0	140
51	5944	0	140
51	7016	0	140
51	7456	0	140
51	8504	0	141
51	8736	0	141
51	9808	0	141
51	10304	0	141
51	11408	0	144
51	11992	0	144
51	12384	0	144
51	12720	0	144
51	12888	0	144
51	12920	0	144
51	12944	0	144
51	13072	0	144
51	13168	0	144
51	13224	0	144
51	13424	0	144
51	16344	0	144
51	17816	0	144
52	89	0	53
52	92	0	54
52	210	0	87
52	219	0	88
52	328	0	110
52	546	0	119
52	551	0	119
52	602	0	124
52	683	0	131
52	765	0	133
52	850	0	133
52	943	0	134
52	988	0	134
52	1064	0	134
52	1188	0	136
52	1256	0	136
52	1434	0	138
52	1464	0	138
52	1730	0	138
52	1792	0	138
52	1838	0	138
52	2048	0	139
52	2090	0	139
52	2128	0	139
52	2276	0	139
52	2462	0	139
52	2532	0	139
52	2726	0	139
52	3496	0	139
52	3740	0	139
52	3848	0	139
52	4148	0	139
52	4484	0	139
52	4736	0	139
52	5108	0	139
52	5204	0	139
52	5692	0	140
52	5984	0	140
52	6148	0	140
52	6332	0	140
52	6356	0	140
52	6396	0	140
52	7640	0	140
52	8200	0	141
52	8312	0	141
52	8656	0	141
52	8960	0	141
52	9120	0	141
52	10168	0	141
52	10616	0	144
52	10912	0	144
52	11104	0	144
52	11184	0	144
52	11512	0	144
52	11632	0	144
52	11680	0	144
52	12984	0	144
52	13192	0	144
52	15000	0	144
52	16648	0	144
52	16888	0	144
52	17832	0	144
52	18456	0	144
53	90	0	54
53	102	0	61
53	131	0	69
53	133	0	69
53	248	0	88
53	254	0	88
53	322	0	110
53	397	0	114
53	600	0	124
53	964	0	134
53	1034	0	134
53	1060	0	134
53	1248	0	136
53	1654	0	138
53	1718	0	138
53	1990	0	139
53	2106	0	139
53	2172	0	139
53	2266	0	139
53	2336	0	139
53	2430	0	139
53	2442	0	139
53	2592	0	139
53	2626	0	139
53	2690	0	139
53	2762	0	139
53	3080	0	139
53	3452	0	139
53	3508	0	139
53	4288	0	139
53	4648	0	139
53	4852	0	139
53	4860	0	139
53	5156	0	139
53	5368	0	140
53	6240	0	140
53	6512	0	140
53	6584	0	140
53	6644	0	140
53	6680	0	140
53	6984	0	140
53	8768	0	141
53	8968	0	141
53	9072	0	141
53	9336	0	141
53	9352	0	141
53	9816	0	141
53	10672	0	144
53	11008	0	144
53	12040	0	144
53	13848	0	144
53	13984	0	144
53	14056	0	144
53	15224	0	144
53	16232	0	144
53	16856	0	144
53	17160	0	144
54	93	0	55
54	140	0	72
54	220	0	88
54	396	0	114
54	434	0	115
54	573	0	119
54	622	0	124
54	839	0	133
54	886	0	133
54	955	0	134
54	971	0	134
54	993	0	134
54	1022	0	134
54	1176	0	136
54	1306	0	136
54	1672	0	138
54	1700	0	138
54	1980	0	139
54	2088	0	139
54	2538	0	139
54	2952	0	139
54	2978	0	139
54	3236	0	139
54	3684	0	139
54	3860	0	139
54	3924	0	139
54	4560	0	139
54	4688	0	139
54	5348	0	139
54	5448	0	140
54	5732	0	140
54	6000	0	140
54	7736	0	140
54	8400	0	141
54	9128	0	141
54	10456	0	141
54	11288	0	144
54	11472	0	144
54	11520	0	144
54	12200	0	144
54	12312	0	144
54	12360	0	144
54	13048	0	144
54	13728	0	144
54	14528	0	144
54	17288	0	144
55	94	0	56
55	103	0	61
55	139	0	72
55	158	0	75
55	373	0	114
55	398	0	114
55	465	0	117
55	478	0	117
55	497	0	119
55	528	0	119
55	616	0	124
55	679	0	131
55	684	0	131
55	994	0	134
55	1020	0	134
55	1032	0	134
55	1444	0	138
55	1744	0	138
55	1810	0	138
55	1908	0	139
55	1978	0	139
55	2432	0	139
55	2454	0	139
55	2660	0	139
55	2822	0	139
55	3000	0	139
55	3120	0	139
55	3716	0	139
55	3724	0	139
55	3736	0	139
55	3932	0	139
55	4856	0	139
55	5628	0	140
55	5772	0	140
55	5988	0	140
55	6952	0	140
55	6960	0	140
55	7632	0	140
55	7824	0	141
55	9024	0	141
55	11640	0	144
55	11720	0	144
55	11808	0	144
55	12800	0	144
55	13344	0	144
55	13672	0	144
55	13760	0	144
55	14472	0	144
55	15576	0	144
55	16248	0	144
55	17368	0	144
55	17512	0	144
55	17624	0	144
56	95	0	57
56	126	0	68
56	175	0	82
56	251	0	88
56	297	0	109
56	395	0	114
56	416	0	115
56	430	0	115
56	484	0	118
56	544	0	119
56	611	0	124
56	748	0	133
56	764	0	133
56	832	0	133
56	942	0	134
56	1104	0	136
56	1428	0	138
56	1438	0	138
56	1572	0	138
56	1714	0	138
56	1984	0	139
56	2008	0	139
56	2236	0	139
56	2290	0	139
56	2362	0	139
56	2470	0	139
56	2526	0	139
56	2820	0	139
56	2880	0	139
56	2946	0	139
56	3172	0	139
56	3892	0	139
56	4040	0	139
56	5272	0	139
56	5592	0	140
56	5752	0	140
56	6328	0	140
56	6448	0	140
56	6824	0	140
56	7056	0	140
56	7712	0	140
56	7832	0	141
56	8384	0	141
56	8976	0	141
56	9368	0	141
56	10072	0	141
56	10224	0	141
56	10736	0	144
56	10760	0	144
56	11096	0	144
56	12256	0	144
56	12328	0	144
56	12728	0	144
56	12808	0	144
56	13768	0	144
56	17080	0	144
56	17400	0	144
57	96	0	58
57	120	0	68
57	229	0	88
57	337	0	111
57	424	0	115
57	438	0	115
57	836	0	133
57	849	0	133
57	1198	0	136
57	1290	0	136
57	1456	0	138
57	1858	0	138
57	2244	0	139
57	2890	0	139
57	2944	0	139
57	3088	0	139
57	3124	0	139
57	3204	0	139
57	3488	0	139
57	3680	0	139
57	3936	0	139
57	4548	0	139
57	4664	0	139
57	4696	0	139
57	5136	0	139
57	6144	0	140
57	6468	0	140
57	6956	0	140
57	9112	0	141
57	9424	0	141
57	10112	0	141
57	10520	0	141
57	10648	0	144
57	11072	0	144
57	11216	0	144
57	11792	0	144
57	12248	0	144
57	12584	0	144
57	13088	0	144
57	13744	0	144
58	98	0	59
58	109	0	63
58	181	0	82
58	211	0	87
58	218	0	88
58	291	0	109
58	339	0	111
58	372	0	114
58	446	0	115
58	463	0	117
58	651	0	129
58	656	0	129
58	671	0	130
58	840	0	133
58	846	0	133
58	853	0	133
58	1014	0	134
58	1286	0	136
58	1322	0	137
58	1366	0	138
58	1442	0	138
58	1652	0	138
58	1694	0	138
58	1756	0	138
58	1830	0	138
58	2166	0	139
58	2214	0	139
58	2238	0	139
58	2274	0	139
58	2662	0	139
58	2672	0	139
58	3028	0	139
58	3092	0	139
58	3156	0	139
58	3244	0	139
58	3568	0	139
58	4124	0	139
58	4672	0	139
58	5520	0	140
58	5580	0	140
58	5744	0	140
58	5912	0	140
58	5948	0	140
58	6616	0	140
58	6724	0	140
58	6916	0	140
58	7600	0	140
58	8464	0	141
58	8896	0	141
58	9032	0	141
58	10024	0	141
58	10104	0	141
58	10312	0	141
58	10552	0	144
58	10568	0	144
58	11056	0	144
58	11200	0	144
58	11440	0	144
58	12080	0	144
58	12392	0	144
58	12552	0	144
58	14928	0	144
58	16968	0	144
58	18632	0	144
59	99	0	60
59	178	0	82
59	250	0	88
59	493	0	119
59	526	0	119
59	547	0	119
59	560	0	119
59	565	0	119
59	567	0	119
59	650	0	129
59	768	0	133
59	776	0	133
59	789	0	133
59	823	0	133
59	828	0	133
59	841	0	133
59	858	0	133
59	891	0	133
59	936	0	134
59	940	0	134
59	970	0	134
59	1128	0	136
59	1352	0	138
59	1798	0	138
59	1816	0	138
59	1902	0	138
59	2042	0	139
59	2270	0	139
59	2360	0	139
59	2402	0	139
59	2476	0	139
59	2826	0	139
59	2960	0	139
59	2988	0	139
59	3248	0	139
59	3396	0	139
59	3580	0	139
59	3600	0	139
59	4028	0	139
59	4116	0	139
59	4160	0	139
59	4508	0	139
59	5444	0	140
59	6344	0	140
59	6392	0	140
59	6436	0	140
59	8840	0	141
59	9184	0	141
59	9600	0	141
59	10192	0	141
59	11712	0	144
59	12160	0	144
59	13304	0	144
59	13608	0	144
59	14200	0	144
59	15112	0	144
59	15608	0	144
60	101	0	61
60	176	0	82
60	208	0	87
60	225	0	88
60	316	0	110
60	529	0	119
60	639	0	127
60	716	0	131
60	755	0	133
60	796	0	133
60	816	0	133
60	932	0	134
60	991	0	134
60	1006	0	134
60	1138	0	136
60	1154	0	136
60	1174	0	136
60	1262	0	136
60	1450	0	138
60	1774	0	138
60	1784	0	138
60	1894	0	138
60	1934	0	139
60	2004	0	139
60	2206	0	139
60	2364	0	139
60	2490	0	139
60	2764	0	139
60	2950	0	139
60	3016	0	139
60	3320	0	139
60	3448	0	139
60	4080	0	139
60	4324	0	139
60	4704	0	139
60	4876	0	139
60	5148	0	139
60	5488	0	140
60	6152	0	140
60	6336	0	140
60	6820	0	140
60	7392	0	140
60	7512	0	140
60	7528	0	140
60	7680	0	140
60	8008	0	141
60	8096	0	141
60	9144	0	141
60	9744	0	141
60	10240	0	141
60	10480	0	141
60	10744	0	144
60	10832	0	144
60	13000	0	144
60	13176	0	144
60	14120	0	144
60	14824	0	144
60	14984	0	144
60	15032	0	144
60	15816	0	144
60	16264	0	144
60	16392	0	144
60	17592	0	144
60	17896	0	144
60	18616	0	144
61	105	0	62
61	165	0	80
61	192	0	85
61	253	0	88
61	393	0	114
61	432	0	115
61	542	0	119
61	749	0	133
61	785	0	133
61	933	0	134
61	935	0	134
61	957	0	134
61	969	0	134
61	982	0	134
61	1024	0	134
61	1396	0	138
61	2034	0	139
61	2044	0	139
61	2064	0	139
61	2148	0	139
61	2170	0	139
61	2380	0	139
61	2408	0	139
61	2434	0	139
61	2448	0	139
61	2882	0	139
61	2900	0	139
61	3104	0	139
61	3880	0	139
61	3968	0	139
61	4792	0	139
61	5380	0	140
61	6192	0	140
61	6388	0	140
61	6460	0	140
61	6864	0	140
61	7000	0	140
61	8432	0	141
61	8496	0	141
61	8624	0	141
61	8888	0	141
61	9632	0	141
61	9760	0	141
61	10184	0	141
61	10920	0	144
61	11048	0	144
61	11176	0	144
61	11496	0	144
61	11696	0	144
61	12304	0	144
61	12592	0	144
61	14520	0	144
61	17224	0	144
62	108	0	63
62	156	0	75
62	285	0	109
62	287	0	109
62	425	0	115
62	485	0	118
62	578	0	119
62	1016	0	134
62	1196	0	136
62	1440	0	138
62	2586	0	139
62	5284	0	139
62	5528	0	140
62	5740	0	140
62	6108	0	140
62	6480	0	140
62	6628	0	140
62	6912	0	140
62	7904	0	141
62	9040	0	141
62	9832	0	141
62	10016	0	141
62	14792	0	144
62	16936	0	144
63	110	0	64
63	122	0	68
63	286	0	109
63	417	0	115
63	496	0	119
63	549	0	119
63	674	0	130
63	757	0	133
63	852	0	133
63	890	0	133
63	939	0	134
63	963	0	134
63	1124	0	136
63	1400	0	138
63	1412	0	138
63	1474	0	138
63	1678	0	138
63	1856	0	138
63	2022	0	139
63	2230	0	139
63	2418	0	139
63	2530	0	139
63	2534	0	139
63	2984	0	139
63	3144	0	139
63	3964	0	139
63	4408	0	139
63	4656	0	139
63	4936	0	139
63	5300	0	139
63	5308	0	139
63	5648	0	140
63	6624	0	140
63	7704	0	140
63	7752	0	140
63	8080	0	141
63	8712	0	141
63	9008	0	141
63	10336	0	141
63	10848	0	144
63	11776	0	144
63	11880	0	144
63	11896	0	144
63	12376	0	144
63	14360	0	144
63	14800	0	144
64	114	0	65
64	194	0	85
64	289	0	109
64	302	0	110
64	442	0	115
64	472	0	117
64	686	0	131
64	880	0	133
64	949	0	134
64	1190	0	136
64	1272	0	136
64	1342	0	138
64	1350	0	138
64	1628	0	138
64	1710	0	138
64	1780	0	138
64	2302	0	139
64	2540	0	139
64	2738	0	139
64	2800	0	139
64	2870	0	139
64	2942	0	139
64	2948	0	139
64	3584	0	139
64	3984	0	139
64	4556	0	139
64	4824	0	139
64	4884	0	139
64	4984	0	139
64	5196	0	139
64	5340	0	139
64	5480	0	140
64	5504	0	140
64	5952	0	140
64	6376	0	140
64	6748	0	140
64	6992	0	140
64	7040	0	140
64	7424	0	140
64	7464	0	140
64	8072	0	141
64	8088	0	141
64	8320	0	141
64	8688	0	141
64	10152	0	141
64	10296	0	141
64	10680	0	144
64	10960	0	144
64	11224	0	144
64	11856	0	144
64	11952	0	144
64	12168	0	144
64	12856	0	144
64	13872	0	144
64	14112	0	144
64	14688	0	144
64	15144	0	144
64	17256	0	144
64	17448	0	144
64	18280	0	144
64	18488	0	144
64	18680	0	144
65	117	0	66
65	166	0	80
65	180	0	82
65	359	0	114
65	402	0	114
65	540	0	119
65	703	0	131
65	750	0	133
65	775	0	133
65	864	0	133
65	869	0	133
65	875	0	133
65	1192	0	136
65	1310	0	136
65	1410	0	138
65	1478	0	138
65	1702	0	138
65	1854	0	138
65	1890	0	138
65	2310	0	139
65	2326	0	139
65	2460	0	139
65	2702	0	139
65	2790	0	139
65	2908	0	139
65	3008	0	139
65	3216	0	139
65	3280	0	139
65	3348	0	139
65	3596	0	139
65	3708	0	139
65	3980	0	139
65	4500	0	139
65	5812	0	140
65	5996	0	140
65	7416	0	140
65	7936	0	141
65	8192	0	141
65	8720	0	141
65	8920	0	141
65	10176	0	141
65	10352	0	141
65	10752	0	144
65	11424	0	144
65	11576	0	144
65	11848	0	144
65	12008	0	144
65	12520	0	144
65	12664	0	144
65	12896	0	144
65	13280	0	144
65	13368	0	144
65	13488	0	144
65	13600	0	144
65	13664	0	144
65	14488	0	144
65	15080	0	144
65	16312	0	144
65	16504	0	144
65	17544	0	144
65	17736	0	144
65	18760	0	144
66	118	0	67
66	204	0	86
66	212	0	87
66	239	0	88
66	351	0	114
66	389	0	114
66	525	0	119
66	652	0	129
66	670	0	130
66	754	0	133
66	847	0	133
66	1028	0	134
66	1822	0	138
66	2514	0	139
66	2774	0	139
66	2792	0	139
66	3316	0	139
66	3928	0	139
66	4444	0	139
66	4872	0	139
66	4908	0	139
66	5228	0	139
66	5236	0	139
66	5328	0	139
66	6016	0	140
66	6780	0	140
66	6976	0	140
66	7336	0	140
66	8576	0	141
66	9456	0	141
66	9488	0	141
66	13736	0	144
66	16408	0	144
67	119	0	68
67	187	0	82
67	356	0	114
67	363	0	114
67	401	0	114
67	475	0	117
67	514	0	119
67	574	0	119
67	767	0	133
67	774	0	133
67	975	0	134
67	1098	0	136
67	1308	0	136
67	1404	0	138
67	1606	0	138
67	1746	0	138
67	2164	0	139
67	2824	0	139
67	2888	0	139
67	2932	0	139
67	2990	0	139
67	3288	0	139
67	3616	0	139
67	4680	0	139
67	4756	0	139
67	5808	0	140
67	5816	0	140
67	5916	0	140
67	5924	0	140
67	6020	0	140
67	6756	0	140
67	7784	0	140
67	8016	0	141
67	8536	0	141
67	9408	0	141
67	9440	0	141
67	9544	0	141
67	10248	0	141
67	10360	0	141
67	11568	0	144
67	12072	0	144
67	12544	0	144
67	13712	0	144
67	14504	0	144
68	129	0	69
68	145	0	73
68	333	0	110
68	379	0	114
68	467	0	117
68	586	0	119
68	878	0	133
68	931	0	134
68	978	0	134
68	1160	0	136
68	1554	0	138
68	1574	0	138
68	1708	0	138
68	1868	0	138
68	2052	0	139
68	2208	0	139
68	2410	0	139
68	2542	0	139
68	2864	0	139
68	2868	0	139
68	2898	0	139
68	3528	0	139
68	3792	0	139
68	3888	0	139
68	4808	0	139
68	4988	0	139
68	6132	0	140
68	6368	0	140
68	6564	0	140
68	6572	0	140
68	6744	0	140
68	6816	0	140
68	8040	0	141
68	10488	0	141
68	10824	0	144
68	14080	0	144
68	14128	0	144
68	14680	0	144
68	14760	0	144
68	17880	0	144
69	136	0	70
69	394	0	114
69	427	0	115
69	654	0	129
69	707	0	131
69	1356	0	138
69	1698	0	138
69	1796	0	138
69	1916	0	139
69	2178	0	139
69	2210	0	139
69	2452	0	139
69	2708	0	139
69	2808	0	139
69	3128	0	139
69	3168	0	139
69	3456	0	139
69	3920	0	139
69	4304	0	139
69	4592	0	139
69	5180	0	139
69	5296	0	139
69	5700	0	140
69	5748	0	140
69	5824	0	140
69	6184	0	140
69	6208	0	140
69	6608	0	140
69	7920	0	141
69	8760	0	141
69	8912	0	141
69	9728	0	141
69	10320	0	141
69	13752	0	144
69	14648	0	144
69	14776	0	144
69	14808	0	144
69	17176	0	144
69	17352	0	144
70	137	0	71
70	179	0	82
70	182	0	82
70	227	0	88
70	317	0	110
70	439	0	115
70	660	0	130
70	694	0	131
70	699	0	131
70	702	0	131
70	848	0	133
70	888	0	133
70	1100	0	136
70	1312	0	136
70	1564	0	138
70	1742	0	138
70	2032	0	139
70	2138	0	139
70	2168	0	139
70	2222	0	139
70	2254	0	139
70	2286	0	139
70	2874	0	139
70	3100	0	139
70	3140	0	139
70	3368	0	139
70	3844	0	139
70	5240	0	139
70	5660	0	140
70	6024	0	140
70	6432	0	140
70	7072	0	140
70	7536	0	140
70	7728	0	140
70	8184	0	141
70	8944	0	141
70	9136	0	141
70	9152	0	141
70	9200	0	141
70	9776	0	141
70	10976	0	144
70	11592	0	144
70	14424	0	144
70	15832	0	144
70	17208	0	144
71	138	0	72
71	155	0	75
71	157	0	75
71	230	0	88
71	392	0	114
71	426	0	115
71	431	0	115
71	623	0	124
71	937	0	134
71	956	0	134
71	1008	0	134
71	1200	0	136
71	1398	0	138
71	2246	0	139
71	2590	0	139
71	2914	0	139
71	2924	0	139
71	2980	0	139
71	3180	0	139
71	3588	0	139
71	3732	0	139
71	4120	0	139
71	4600	0	139
71	5736	0	140
71	6640	0	140
71	6868	0	140
71	8280	0	141
71	8848	0	141
71	9208	0	141
71	9688	0	141
71	10576	0	144
71	10880	0	144
71	11464	0	144
71	11480	0	144
71	11904	0	144
71	12280	0	144
71	14104	0	144
71	14536	0	144
71	14944	0	144
71	16920	0	144
71	17480	0	144
72	143	0	73
72	153	0	75
72	325	0	110
72	568	0	119
72	615	0	124
72	618	0	124
72	687	0	131
72	706	0	131
72	763	0	133
72	780	0	133
72	824	0	133
72	929	0	134
72	948	0	134
72	1122	0	136
72	1126	0	136
72	1150	0	136
72	1370	0	138
72	1472	0	138
72	1588	0	138
72	1686	0	138
72	1850	0	138
72	1860	0	138
72	1920	0	139
72	1996	0	139
72	2086	0	139
72	2176	0	139
72	2810	0	139
72	2892	0	139
72	3020	0	139
72	3196	0	139
72	3476	0	139
72	3820	0	139
72	3960	0	139
72	3976	0	139
72	4092	0	139
72	4416	0	139
72	4864	0	139
72	4920	0	139
72	5268	0	139
72	5316	0	139
72	5460	0	140
72	5600	0	140
72	5644	0	140
72	5680	0	140
72	5760	0	140
72	6040	0	140
72	6160	0	140
72	6188	0	140
72	6340	0	140
72	7520	0	140
72	8112	0	141
72	8208	0	141
72	8264	0	141
72	8344	0	141
72	8376	0	141
72	8392	0	141
72	8608	0	141
72	8904	0	141
72	9160	0	141
72	10048	0	141
72	10656	0	144
72	10728	0	144
72	10952	0	144
72	12712	0	144
72	12904	0	144
72	13352	0	144
72	13632	0	144
72	14416	0	144
72	14720	0	144
72	14912	0	144
72	16376	0	144
72	17576	0	144
72	17800	0	144
72	18792	0	145
73	151	0	74
73	171	0	80
73	226	0	88
73	236	0	88
73	613	0	124
73	685	0	131
73	692	0	131
73	759	0	133
73	762	0	133
73	990	0	134
73	1066	0	134
73	1136	0	136
73	1288	0	136
73	1324	0	138
73	1680	0	138
73	1842	0	138
73	2070	0	139
73	2078	0	139
73	2136	0	139
73	2200	0	139
73	2204	0	139
73	2228	0	139
73	2422	0	139
73	2718	0	139
73	3096	0	139
73	3516	0	139
73	3864	0	139
73	4044	0	139
73	4292	0	139
73	4552	0	139
73	4636	0	139
73	5652	0	140
73	6348	0	140
73	6580	0	140
73	6612	0	140
73	6732	0	140
73	6828	0	140
73	7064	0	140
73	7856	0	141
73	9088	0	141
73	9624	0	141
73	10496	0	141
73	10872	0	144
73	11152	0	144
73	11280	0	144
73	12336	0	144
73	12528	0	144
73	13432	0	144
73	14400	0	144
73	14744	0	144
73	17432	0	144
73	18264	0	144
74	152	0	75
74	232	0	88
74	243	0	88
74	405	0	114
74	415	0	115
74	440	0	115
74	480	0	117
74	672	0	130
74	713	0	131
74	756	0	133
74	819	0	133
74	870	0	133
74	954	0	134
74	980	0	134
74	1004	0	134
74	1074	0	134
74	1274	0	136
74	1302	0	136
74	1338	0	138
74	1348	0	138
74	1364	0	138
74	1658	0	138
74	1736	0	138
74	1844	0	138
74	1962	0	139
74	2020	0	139
74	2100	0	139
74	2250	0	139
74	2256	0	139
74	2536	0	139
74	2782	0	139
74	2832	0	139
74	2926	0	139
74	3264	0	139
74	3812	0	139
74	3948	0	139
74	4336	0	139
74	4764	0	139
74	4788	0	139
74	5200	0	139
74	5392	0	140
74	5908	0	140
74	6548	0	140
74	6836	0	140
74	7048	0	140
74	7256	0	140
74	7400	0	140
74	7560	0	140
74	7672	0	140
74	7744	0	140
74	8584	0	141
74	8648	0	141
74	9504	0	141
74	10160	0	141
74	10232	0	141
74	11024	0	144
74	11528	0	144
74	11800	0	144
74	11944	0	144
74	12152	0	144
74	12536	0	144
74	12992	0	144
74	13080	0	144
74	14440	0	144
74	17272	0	144
74	17704	0	144
75	159	0	76
75	309	0	110
75	352	0	114
75	383	0	114
75	503	0	119
75	559	0	119
75	1130	0	136
75	1168	0	136
75	1336	0	138
75	1362	0	138
75	1594	0	138
75	1818	0	138
75	2282	0	139
75	2314	0	139
75	2318	0	139
75	2788	0	139
75	2998	0	139
75	4024	0	139
75	4504	0	139
75	5792	0	140
75	5804	0	140
75	5936	0	140
75	5960	0	140
75	8248	0	141
75	9496	0	141
75	10432	0	141
75	12056	0	144
75	12416	0	144
75	12464	0	144
75	13960	0	144
75	14496	0	144
75	16456	0	144
76	160	0	77
76	346	0	113
76	457	0	115
76	604	0	124
76	1328	0	138
76	1420	0	138
76	1424	0	138
76	2394	0	139
76	2652	0	139
76	2772	0	139
76	2794	0	139
76	3624	0	139
76	3652	0	139
76	3908	0	139
76	4008	0	139
76	4020	0	139
76	5416	0	140
76	7360	0	140
76	7960	0	141
76	8240	0	141
76	12064	0	144
76	12640	0	144
76	15320	0	144
76	16792	0	144
77	161	0	78
77	384	0	114
77	411	0	115
77	553	0	119
77	1612	0	138
77	1974	0	139
77	2846	0	139
77	4452	0	139
77	5424	0	140
77	5964	0	140
77	6776	0	140
77	6784	0	140
77	6848	0	140
77	7280	0	140
77	7352	0	140
77	7368	0	140
77	9584	0	141
77	10376	0	141
77	11744	0	144
77	12424	0	144
77	12456	0	144
77	13464	0	144
77	13936	0	144
77	15672	0	144
77	15752	0	144
77	16584	0	144
78	162	0	79
78	355	0	114
78	365	0	114
78	476	0	117
78	479	0	117
78	663	0	130
78	678	0	131
78	766	0	133
78	857	0	133
78	1140	0	136
78	1144	0	136
78	1620	0	138
78	1808	0	138
78	2118	0	139
78	2378	0	139
78	2658	0	139
78	2700	0	139
78	2742	0	139
78	2806	0	139
78	2962	0	139
78	3192	0	139
78	3420	0	139
78	3672	0	139
78	3748	0	139
78	3804	0	139
78	5768	0	140
78	7776	0	140
78	7816	0	141
78	9384	0	141
78	12632	0	144
78	13680	0	144
78	14192	0	144
78	14464	0	144
78	14512	0	144
78	14904	0	144
78	15352	0	144
78	15384	0	144
78	15640	0	144
78	16328	0	144
78	16360	0	144
79	164	0	80
79	292	0	109
79	518	0	119
79	532	0	119
79	552	0	119
79	580	0	119
79	698	0	131
79	753	0	133
79	844	0	133
79	873	0	133
79	894	0	133
79	989	0	134
79	1164	0	136
79	1408	0	138
79	1462	0	138
79	1880	0	138
79	2000	0	139
79	2226	0	139
79	2308	0	139
79	2642	0	139
79	2770	0	139
79	2814	0	139
79	3188	0	139
79	3292	0	139
79	3776	0	139
79	4912	0	139
79	5704	0	140
79	7384	0	140
79	8224	0	141
79	9448	0	141
79	9560	0	141
79	9576	0	141
79	10256	0	141
79	10864	0	144
79	11768	0	144
79	11824	0	144
79	12400	0	144
79	13008	0	144
79	13144	0	144
79	13320	0	144
79	13720	0	144
79	14152	0	144
79	15368	0	144
79	18712	0	144
80	173	0	81
80	199	0	85
80	216	0	88
80	305	0	110
80	364	0	114
80	408	0	114
80	700	0	131
80	881	0	133
80	947	0	134
80	1156	0	136
80	1284	0	136
80	1360	0	138
80	1466	0	138
80	1490	0	138
80	2062	0	139
80	2160	0	139
80	2262	0	139
80	2384	0	139
80	2472	0	139
80	2666	0	139
80	2706	0	139
80	2730	0	139
80	2796	0	139
80	2854	0	139
80	3200	0	139
80	3896	0	139
80	4004	0	139
80	4428	0	139
80	4968	0	139
80	5388	0	140
80	6004	0	140
80	6712	0	140
80	6752	0	140
80	6844	0	140
80	7248	0	140
80	7376	0	140
80	8160	0	141
80	9104	0	141
80	9376	0	141
80	9520	0	141
80	9592	0	141
80	10464	0	141
80	11656	0	144
80	11864	0	144
80	12488	0	144
80	12568	0	144
80	13888	0	144
80	14224	0	144
80	14480	0	144
80	15176	0	144
80	15336	0	144
80	16632	0	144
80	17784	0	144
81	174	0	82
81	313	0	110
81	366	0	114
81	403	0	114
81	512	0	119
81	530	0	119
81	837	0	133
81	879	0	133
81	903	0	133
81	1120	0	136
81	1282	0	136
81	1346	0	138
81	1468	0	138
81	1488	0	138
81	1706	0	138
81	1734	0	138
81	1912	0	139
81	2018	0	139
81	2298	0	139
81	2474	0	139
81	2744	0	139
81	2936	0	139
81	2940	0	139
81	3032	0	139
81	3788	0	139
81	4088	0	139
81	4708	0	139
81	4780	0	139
81	4972	0	139
81	5124	0	139
81	5352	0	139
81	5980	0	140
81	6440	0	140
81	6532	0	140
81	6552	0	140
81	8288	0	141
81	8480	0	141
81	8664	0	141
81	9176	0	141
81	9360	0	141
81	9392	0	141
81	10064	0	141
81	10840	0	144
81	11088	0	144
81	11432	0	144
81	11960	0	144
81	12216	0	144
81	15480	0	144
81	16872	0	144
81	16904	0	144
81	18504	0	144
82	188	0	83
82	217	0	88
82	221	0	88
82	223	0	88
82	238	0	88
82	306	0	110
82	310	0	110
82	382	0	114
82	414	0	115
82	501	0	119
82	504	0	119
82	575	0	119
82	680	0	131
82	714	0	131
82	794	0	133
82	868	0	133
82	889	0	133
82	960	0	134
82	962	0	134
82	1026	0	134
82	1170	0	136
82	1344	0	138
82	1446	0	138
82	1804	0	138
82	2016	0	139
82	2366	0	139
82	2720	0	139
82	2928	0	139
82	2970	0	139
82	3492	0	139
82	3500	0	139
82	3572	0	139
82	3800	0	139
82	3872	0	139
82	4164	0	139
82	4312	0	139
82	4488	0	139
82	4640	0	139
82	4728	0	139
82	5144	0	139
82	5472	0	140
82	5716	0	140
82	5756	0	140
82	5780	0	140
82	5800	0	140
82	6176	0	140
82	6464	0	140
82	6972	0	140
82	7696	0	140
82	7760	0	140
82	8256	0	141
82	8456	0	141
82	10040	0	141
82	10544	0	144
82	11544	0	144
82	11816	0	144
82	12000	0	144
82	12048	0	144
82	12192	0	144
82	12576	0	144
82	12672	0	144
82	12752	0	144
82	13696	0	144
82	14184	0	144
82	14216	0	144
83	190	0	84
83	197	0	85
83	558	0	119
83	1596	0	138
83	1608	0	138
83	1646	0	138
83	1884	0	138
83	2322	0	139
83	2398	0	139
83	3620	0	139
83	3636	0	139
83	7800	0	141
83	11736	0	144
83	12432	0	144
83	13912	0	144
84	191	0	85
84	353	0	114
84	541	0	119
84	606	0	124
84	608	0	124
84	859	0	133
84	863	0	133
84	865	0	133
84	883	0	133
84	1330	0	138
84	1610	0	138
84	1618	0	138
84	1644	0	138
84	1812	0	138
84	1886	0	138
84	1904	0	138
84	1940	0	139
84	1970	0	139
84	1976	0	139
84	2320	0	139
84	2816	0	139
84	3876	0	139
84	4496	0	139
84	7792	0	141
84	7992	0	141
84	11032	0	144
84	11728	0	144
84	11840	0	144
84	13480	0	144
84	13896	0	144
84	13920	0	144
84	16824	0	144
85	203	0	86
85	341	0	111
85	348	0	113
85	358	0	114
85	387	0	114
85	522	0	119
85	524	0	119
85	884	0	133
85	1604	0	138
85	2162	0	139
85	2648	0	139
85	2906	0	139
85	3300	0	139
85	4436	0	139
85	5232	0	139
85	5432	0	140
85	10400	0	141
85	10416	0	141
85	11752	0	144
85	11832	0	144
85	12440	0	144
85	12656	0	144
85	16440	0	144
85	16520	0	144
85	16696	0	144
86	206	0	87
86	315	0	110
86	419	0	115
86	517	0	119
86	843	0	133
86	845	0	133
86	855	0	133
86	895	0	133
86	946	0	134
86	981	0	134
86	992	0	134
86	1148	0	136
86	1320	0	137
86	1388	0	138
86	1458	0	138
86	1566	0	138
86	1770	0	138
86	1992	0	139
86	2050	0	139
86	2094	0	139
86	2370	0	139
86	2406	0	139
86	2436	0	139
86	2440	0	139
86	2740	0	139
86	2768	0	139
86	2976	0	139
86	3176	0	139
86	3692	0	139
86	5140	0	139
86	5516	0	140
86	5632	0	140
86	6140	0	140
86	6196	0	140
86	6524	0	140
86	6920	0	140
86	7624	0	140
86	7688	0	140
86	10128	0	141
86	10584	0	144
86	10608	0	144
86	11456	0	144
86	11888	0	144
86	12744	0	144
86	12968	0	144
86	13040	0	144
86	13336	0	144
86	16984	0	144
86	18776	0	144
87	213	0	88
87	343	0	112
87	386	0	114
87	556	0	119
87	607	0	124
87	2156	0	139
87	2396	0	139
87	2506	0	139
87	2512	0	139
87	3608	0	139
87	4448	0	139
87	6852	0	140
87	7952	0	141
87	7976	0	141
87	8568	0	141
87	10392	0	141
87	13928	0	144
87	16424	0	144
87	16600	0	144
88	255	0	89
88	731	0	133
88	1514	0	138
88	2594	0	139
88	2682	0	139
88	4380	0	139
88	5012	0	139
88	6320	0	140
88	6500	0	140
88	6688	0	140
88	6872	0	140
88	7168	0	140
88	7200	0	140
88	9304	0	141
88	9704	0	141
88	16104	0	144
88	18152	0	144
88	18408	0	144
89	256	0	90
89	489	0	119
89	1204	0	136
89	1226	0	136
89	1516	0	138
89	1542	0	138
89	2676	0	139
89	4172	0	139
89	4208	0	139
89	4224	0	139
89	4236	0	139
89	4996	0	139
89	5844	0	140
89	6216	0	140
89	9904	0	141
89	15896	0	144
89	16216	0	144
89	18392	0	144
90	257	0	91
90	284	0	109
90	729	0	133
90	744	0	133
90	922	0	134
90	1218	0	136
90	1512	0	138
90	2558	0	139
90	2570	0	139
90	4204	0	139
90	4220	0	139
90	5880	0	140
90	5896	0	140
90	6488	0	140
90	6504	0	140
90	9864	0	141
90	13832	0	144
90	14576	0	144
90	18120	0	144
91	258	0	92
91	266	0	98
91	591	0	121
91	637	0	127
91	1230	0	136
91	2342	0	139
91	2598	0	139
91	5008	0	139
91	5072	0	139
91	7128	0	140
91	7152	0	140
91	7184	0	140
91	14608	0	144
91	14624	0	144
92	259	0	93
92	265	0	98
92	2550	0	139
92	2556	0	139
92	2602	0	139
92	2616	0	139
92	6080	0	140
92	6304	0	140
92	9872	0	141
92	9976	0	141
92	9992	0	141
92	15928	0	144
92	16040	0	144
93	260	0	94
93	596	0	123
93	633	0	126
93	1234	0	136
93	1522	0	138
93	1550	0	138
93	4248	0	139
93	5848	0	140
93	6068	0	140
93	6076	0	140
93	6252	0	140
93	9224	0	141
93	9896	0	141
93	9912	0	141
93	9944	0	141
93	16072	0	144
93	16120	0	144
94	261	0	95
94	723	0	132
94	919	0	134
94	1040	0	134
94	4360	0	139
94	5040	0	139
94	5056	0	139
94	5064	0	139
94	5864	0	140
94	6256	0	140
94	9248	0	141
94	9264	0	141
94	14328	0	144
94	14616	0	144
94	15960	0	144
94	16024	0	144
94	16056	0	144
95	262	0	96
95	628	0	125
95	1534	0	138
95	2560	0	139
95	2566	0	139
95	2584	0	139
95	2600	0	139
95	4264	0	139
95	6104	0	140
95	6308	0	140
95	6904	0	140
95	10000	0	141
95	14312	0	144
95	14344	0	144
96	263	0	97
96	593	0	121
96	913	0	133
96	915	0	134
96	1042	0	134
96	2604	0	139
96	2614	0	139
96	4272	0	139
96	4368	0	139
96	5868	0	140
96	5888	0	140
96	18024	0	144
96	18056	0	144
97	264	0	98
97	282	0	108
97	721	0	132
97	726	0	132
97	1048	0	134
97	1530	0	138
97	2554	0	139
97	4364	0	139
97	5872	0	140
97	15944	0	144
97	16008	0	144
98	267	0	99
98	590	0	121
98	598	0	123
98	630	0	125
98	737	0	133
98	740	0	133
98	923	0	134
98	1036	0	134
98	2344	0	139
98	2620	0	139
98	4196	0	139
98	5160	0	139
98	6072	0	140
98	6092	0	140
98	6224	0	140
98	6236	0	140
98	6244	0	140
98	7216	0	140
98	8776	0	141
98	9960	0	141
98	13816	0	144
99	268	0	100
99	275	0	103
99	7208	0	140
100	269	0	101
100	272	0	103
101	270	0	102
101	273	0	103
102	271	0	103
102	274	0	103
103	276	0	104
103	625	0	124
103	746	0	133
103	909	0	133
103	1208	0	136
103	1228	0	136
103	1538	0	138
103	1552	0	138
103	2544	0	139
103	2622	0	139
103	4240	0	139
103	4992	0	139
103	5088	0	139
103	5852	0	140
103	6052	0	140
103	6060	0	140
103	7096	0	140
103	14072	0	144
103	15864	0	144
103	18216	0	144
103	18424	0	144
104	277	0	105
104	624	0	124
104	732	0	133
104	1058	0	134
104	1500	0	138
104	1520	0	138
104	1546	0	138
104	2920	0	139
104	4200	0	139
104	4244	0	139
104	5832	0	140
104	5900	0	140
104	6508	0	140
104	8784	0	141
104	9696	0	141
104	14288	0	144
104	18136	0	144
105	278	0	106
105	280	0	107
105	592	0	121
105	636	0	127
105	734	0	133
105	736	0	133
105	1508	0	138
105	2576	0	139
105	2580	0	139
105	2608	0	139
105	2618	0	139
105	4176	0	139
105	4352	0	139
105	4384	0	139
105	5068	0	139
105	6272	0	140
105	6900	0	140
105	8792	0	141
105	9312	0	141
105	9888	0	141
105	9936	0	141
105	9952	0	141
105	14584	0	144
106	279	0	107
106	487	0	119
106	718	0	131
106	742	0	133
106	1052	0	134
106	1216	0	136
106	1220	0	136
106	5032	0	139
106	6312	0	140
106	6908	0	140
106	8800	0	141
106	10008	0	141
106	17976	0	144
107	281	0	108
107	488	0	119
107	722	0	132
107	725	0	132
107	912	0	133
107	921	0	134
107	1044	0	134
107	1212	0	136
107	1528	0	138
107	4216	0	139
107	4252	0	139
107	4260	0	139
107	4388	0	139
107	4400	0	139
107	5036	0	139
107	5164	0	139
107	5884	0	140
107	6896	0	140
107	7160	0	140
107	9240	0	141
107	14296	0	144
108	283	0	109
108	917	0	134
108	1504	0	138
108	2562	0	139
108	6888	0	140
108	9984	0	141
109	300	0	110
109	428	0	115
109	456	0	115
109	500	0	119
109	513	0	119
109	584	0	119
109	882	0	133
109	945	0	134
109	1292	0	136
109	1296	0	136
109	1326	0	138
109	1414	0	138
109	1682	0	138
109	1704	0	138
109	1726	0	138
109	1954	0	139
109	2150	0	139
109	2192	0	139
109	2288	0	139
109	2480	0	139
109	2798	0	139
109	2818	0	139
109	2886	0	139
109	3404	0	139
109	3676	0	139
109	4036	0	139
109	4440	0	139
109	4692	0	139
109	4880	0	139
109	5264	0	139
109	5656	0	140
109	5956	0	140
109	6116	0	140
109	6452	0	140
109	6540	0	140
109	6592	0	140
109	6620	0	140
109	8144	0	141
109	8936	0	141
109	10440	0	141
109	10704	0	144
109	10984	0	144
109	11080	0	144
109	11320	0	144
109	11672	0	144
109	12024	0	144
109	12480	0	144
109	12816	0	144
109	12960	0	144
109	13104	0	144
109	13248	0	144
109	13288	0	144
109	16664	0	144
109	17384	0	144
109	18744	0	144
110	336	0	111
110	378	0	114
110	381	0	114
110	638	0	127
110	642	0	127
110	693	0	131
110	715	0	131
110	983	0	134
110	1236	0	136
110	1250	0	136
110	2056	0	139
110	2124	0	139
110	2350	0	139
110	2630	0	139
110	2674	0	139
110	2918	0	139
110	3384	0	139
110	3868	0	139
110	4136	0	139
110	4564	0	139
110	5112	0	139
110	5248	0	139
110	5256	0	139
110	5828	0	140
110	6212	0	140
110	6284	0	140
110	6928	0	140
110	9216	0	141
110	11160	0	144
110	11392	0	144
110	13808	0	144
110	14640	0	144
110	18472	0	144
110	18520	0	144
111	342	0	112
111	1094	0	136
111	1600	0	138
111	2392	0	139
111	2510	0	139
111	4016	0	139
111	6772	0	140
111	7968	0	141
111	8560	0	141
111	12448	0	144
112	344	0	113
112	860	0	133
112	862	0	133
112	1092	0	136
112	1332	0	138
112	2504	0	139
112	2508	0	139
112	2786	0	139
112	3632	0	139
112	5428	0	140
112	6760	0	140
112	6768	0	140
112	6800	0	140
112	12648	0	144
112	13904	0	144
112	13952	0	144
112	15288	0	144
112	16728	0	144
112	16808	0	144
113	349	0	114
113	357	0	114
113	385	0	114
113	388	0	114
113	1334	0	138
113	1418	0	138
113	1602	0	138
113	1966	0	139
113	3664	0	139
113	4012	0	139
113	6764	0	140
113	8544	0	141
113	15720	0	144
113	16760	0	144
114	410	0	115
114	412	0	115
114	1598	0	138
114	1642	0	138
114	2158	0	139
114	3304	0	139
114	3640	0	139
114	5412	0	140
114	7344	0	140
114	8552	0	141
114	9472	0	141
114	10424	0	141
114	12016	0	144
114	12408	0	144
114	13272	0	144
115	460	0	116
115	462	0	117
115	657	0	129
115	659	0	130
115	1076	0	134
115	1086	0	136
115	1300	0	136
115	3276	0	139
115	11936	0	144
115	12088	0	144
115	12144	0	144
116	461	0	117
117	482	0	118
117	508	0	119
117	666	0	130
117	928	0	134
117	1242	0	136
117	1374	0	138
117	1380	0	138
117	2412	0	139
117	2754	0	139
117	2894	0	139
117	3532	0	139
117	4516	0	139
117	6036	0	140
117	6164	0	140
117	6668	0	140
117	10784	0	144
117	14000	0	144
117	14136	0	144
118	486	0	119
118	597	0	123
118	626	0	124
118	629	0	125
118	719	0	131
118	745	0	133
118	918	0	134
118	1210	0	136
118	1214	0	136
118	1526	0	138
118	2568	0	139
118	2574	0	139
118	2596	0	139
118	4192	0	139
118	5028	0	139
118	5080	0	139
118	6084	0	140
118	6096	0	140
118	6268	0	140
118	6316	0	140
118	6632	0	140
118	6884	0	140
118	7104	0	140
118	8808	0	141
118	9968	0	141
118	14304	0	144
118	14320	0	144
118	16200	0	144
118	18104	0	144
119	587	0	120
119	589	0	121
119	1206	0	136
119	1224	0	136
119	1664	0	138
119	2202	0	139
119	2346	0	139
119	2624	0	139
119	4284	0	139
119	4604	0	139
119	4804	0	139
119	5172	0	139
119	6684	0	140
119	6880	0	140
119	7224	0	140
119	7880	0	141
119	8064	0	141
119	14248	0	144
119	16184	0	144
120	588	0	121
120	632	0	126
120	635	0	127
120	728	0	133
120	2684	0	139
120	4356	0	139
120	5020	0	139
120	5168	0	139
120	6264	0	140
120	6892	0	140
120	9280	0	141
120	9880	0	141
120	9928	0	141
120	14264	0	144
120	15880	0	144
120	16168	0	144
120	18088	0	144
121	594	0	122
121	920	0	134
121	1532	0	138
121	2552	0	139
121	2564	0	139
121	2582	0	139
121	4268	0	139
121	5024	0	139
121	6100	0	140
121	15992	0	144
122	595	0	123
122	1232	0	136
122	1540	0	138
122	1548	0	138
122	4280	0	139
122	5084	0	139
122	9856	0	141
122	14568	0	144
123	599	0	124
123	645	0	129
123	733	0	133
123	735	0	133
123	738	0	133
123	910	0	133
123	2338	0	139
123	2428	0	139
123	2916	0	139
123	2922	0	139
123	4212	0	139
123	5004	0	139
123	5016	0	139
123	5092	0	139
123	6288	0	140
123	6492	0	140
123	6696	0	140
123	14256	0	144
123	14544	0	144
124	627	0	125
124	743	0	133
124	4188	0	139
124	4256	0	139
124	4396	0	139
124	5288	0	139
124	6276	0	140
124	8824	0	141
124	9056	0	141
124	9320	0	141
124	17928	0	144
125	631	0	126
125	739	0	133
125	1038	0	134
125	1536	0	138
125	2680	0	139
125	2686	0	139
125	4184	0	139
125	4344	0	139
125	6220	0	140
125	6232	0	140
125	6292	0	140
125	6692	0	140
125	7112	0	140
125	9256	0	141
125	9272	0	141
125	9296	0	141
125	9920	0	141
125	14600	0	144
125	15912	0	144
125	16136	0	144
125	17944	0	144
126	634	0	127
126	741	0	133
126	911	0	133
126	1056	0	134
126	1202	0	136
126	1222	0	136
126	1544	0	138
126	2572	0	139
126	2578	0	139
126	4180	0	139
126	4404	0	139
126	5000	0	139
126	6496	0	140
126	6636	0	140
126	6876	0	140
126	7888	0	141
126	9232	0	141
126	14352	0	144
126	17960	0	144
127	643	0	128
127	730	0	133
127	1496	0	138
127	1510	0	138
127	1524	0	138
127	2340	0	139
127	2348	0	139
127	2548	0	139
127	2588	0	139
127	2678	0	139
127	2688	0	139
127	4392	0	139
127	5840	0	140
127	6056	0	140
127	6300	0	140
127	6484	0	140
127	6700	0	140
127	6932	0	140
127	7136	0	140
127	7176	0	140
127	7896	0	141
127	9048	0	141
127	9064	0	141
127	9328	0	141
127	9840	0	141
127	13840	0	144
127	14552	0	144
127	14592	0	144
127	14632	0	144
127	16088	0	144
128	644	0	129
128	1498	0	138
128	1518	0	138
128	2546	0	139
128	4228	0	139
128	5044	0	139
128	5052	0	139
128	5836	0	140
128	5856	0	140
128	6064	0	140
128	6260	0	140
128	7144	0	140
128	9848	0	141
128	14560	0	144
128	18168	0	144
129	658	0	130
129	1080	0	135
129	1084	0	136
129	12096	0	144
130	677	0	131
130	802	0	133
130	810	0	133
130	3424	0	139
130	3436	0	139
131	720	0	132
131	724	0	132
131	916	0	134
131	1506	0	138
131	2606	0	139
131	2610	0	139
131	4276	0	139
131	4372	0	139
131	5060	0	139
131	5076	0	139
131	5876	0	140
131	5892	0	140
131	7120	0	140
131	15976	0	144
131	16152	0	144
131	18008	0	144
132	727	0	133
132	1046	0	134
132	1050	0	134
132	1502	0	138
132	2612	0	139
132	4348	0	139
132	4376	0	139
132	6088	0	140
132	6228	0	140
132	6248	0	140
132	6296	0	140
132	7192	0	140
132	8816	0	141
132	9288	0	141
132	13824	0	144
132	14336	0	144
132	17992	0	144
132	18072	0	144
133	914	0	134
133	18040	0	144
134	1078	0	135
134	12112	0	144
134	12136	0	144
135	1082	0	136
136	4232	0	139
136	14280	0	144
136	18184	0	144
137	5048	0	139
137	14272	0	144
138	5860	0	140
139	12104	0	144
139	12128	0	144
140	12120	0	144
141	16712	0	144

