version 3
run General-10-20250904-14:13:11-15186
attr configname General
attr datetime 20250904-14:13:11
attr datetimef 20250904-141311
attr experiment General
attr inifile omnetpp.ini
attr iterationvars ""
attr iterationvarsd ""
attr iterationvarsf ""
attr measurement ""
attr network TaxiNetwork
attr processid 15186
attr repetition 10
attr replication #10
attr resultdir results
attr runnumber 10
attr seedset 10
config network TaxiNetwork
config seed-set 10
config num-rngs 1
config sim-time-limit 10s
config repeat 500
config *.numWalkers 1
config *.enableDuplication true
config *.rc 700
config **.node[0].xCor 2933
config **.node[0].yCor 2747
config **.node[1].xCor 2919
config **.node[1].yCor 2817
config **.node[2].xCor 2910
config **.node[2].yCor 2861
config **.node[3].xCor 2429
config **.node[3].yCor 2851
config **.node[4].xCor 2908
config **.node[4].yCor 2714
config **.node[5].xCor 2606
config **.node[5].yCor 2722
config **.node[6].xCor 2575
config **.node[6].yCor 2753
config **.node[7].xCor 2654
config **.node[7].yCor 2513
config **.node[8].xCor 2773
config **.node[8].yCor 2580
config **.node[9].xCor 3043
config **.node[9].yCor 2780
config **.node[10].xCor 3020
config **.node[10].yCor 2813
config **.node[11].xCor 2599
config **.node[11].yCor 2300
config **.node[12].xCor 2917
config **.node[12].yCor 2698
config **.node[13].xCor 2625
config **.node[13].yCor 2641
config **.node[14].xCor 2604
config **.node[14].yCor 2790
config **.node[15].xCor 2786
config **.node[15].yCor 3082
config **.node[16].xCor 2603
config **.node[16].yCor 2802
config **.node[17].xCor 2637
config **.node[17].yCor 2869
config **.node[18].xCor 2675
config **.node[18].yCor 2955
config **.node[19].xCor 2845
config **.node[19].yCor 2937
config **.node[20].xCor 2860
config **.node[20].yCor 2888
config **.node[21].xCor 2843
config **.node[21].yCor 4158
config **.node[22].xCor 2852
config **.node[22].yCor 4017
config **.node[23].xCor 2892
config **.node[23].yCor 4961
config **.node[24].xCor 2313
config **.node[24].yCor 3993
config **.node[25].xCor 2891
config **.node[25].yCor 4959
config **.node[26].xCor 2370
config **.node[26].yCor 4050
config **.node[27].xCor 2788
config **.node[27].yCor 3958
config **.node[28].xCor 2819
config **.node[28].yCor 4428
config **.node[29].xCor 2790
config **.node[29].yCor 3761
config **.node[30].xCor 2809
config **.node[30].yCor 2908
config **.node[31].xCor 2919
config **.node[31].yCor 3575
config **.node[32].xCor 2946
config **.node[32].yCor 3466
config **.node[33].xCor 2911
config **.node[33].yCor 3453
config **.node[34].xCor 2370
config **.node[34].yCor 3656
config **.node[35].xCor 2438
config **.node[35].yCor 3738
config **.node[36].xCor 2737
config **.node[36].yCor 3570
config **.node[37].xCor 2921
config **.node[37].yCor 3698
config **.node[38].xCor 2907
config **.node[38].yCor 5197
config **.node[39].xCor 2860
config **.node[39].yCor 3852
config **.node[40].xCor 2927
config **.node[40].yCor 3684
config **.node[41].xCor 3023
config **.node[41].yCor 5313
config **.node[42].xCor 3220
config **.node[42].yCor 5811
config **.node[43].xCor 3432
config **.node[43].yCor 5715
config **.node[44].xCor 2754
config **.node[44].yCor 2463
config **.node[45].xCor 2646
config **.node[45].yCor 2673
config **.node[46].xCor 3051
config **.node[46].yCor 2792
config **.node[47].xCor 1666
config **.node[47].yCor 3697
config **.node[48].xCor 1662
config **.node[48].yCor 3694
config **.node[49].xCor 1664
config **.node[49].yCor 3667
config **.node[50].xCor 1660
config **.node[50].yCor 3664
config **.node[51].xCor 1710
config **.node[51].yCor 3573
config **.node[52].xCor 2082
config **.node[52].yCor 2650
config **.node[53].xCor 2086
config **.node[53].yCor 2657
config **.node[54].xCor 2257
config **.node[54].yCor 3232
config **.node[55].xCor 2258
config **.node[55].yCor 3225
config **.node[56].xCor 1926
config **.node[56].yCor 2570
config **.node[57].xCor 1926
config **.node[57].yCor 2576
config **.node[58].xCor 2104
config **.node[58].yCor 1758
config **.node[59].xCor 1957
config **.node[59].yCor 1826
config **.node[60].xCor 3473
config **.node[60].yCor 1523
config **.node[61].xCor 3335
config **.node[61].yCor 1726
config **.node[62].xCor 3478
config **.node[62].yCor 1517
config **.node[63].xCor 3386
config **.node[63].yCor 2119
config **.node[64].xCor 3474
config **.node[64].yCor 1762
config **.node[65].xCor 3797
config **.node[65].yCor 2099
config **.node[66].xCor 3642
config **.node[66].yCor 2136
config **.node[67].xCor 3481
config **.node[67].yCor 2334
config **.node[68].xCor 3088
config **.node[68].yCor 1505
config **.node[69].xCor 3037
config **.node[69].yCor 1693
config **.node[70].xCor 3026
config **.node[70].yCor 1700
config **.node[71].xCor 3019
config **.node[71].yCor 669
config **.node[72].xCor 3513
config **.node[72].yCor 1358
config **.node[73].xCor 3545
config **.node[73].yCor 1230
config **.node[74].xCor 4228
config **.node[74].yCor 4220
config **.node[75].xCor 3379
config **.node[75].yCor 1207
config **.node[76].xCor 3596
config **.node[76].yCor 963
config **.node[77].xCor 3637
config **.node[77].yCor 1188
config **.node[78].xCor 3759
config **.node[78].yCor 1030
config **.node[79].xCor 2918
config **.node[79].yCor 1455
config **.node[80].xCor 2711
config **.node[80].yCor 1297
config **.node[81].xCor 439
config **.node[81].yCor 1623
config **.node[82].xCor 2857
config **.node[82].yCor 3581
config **.node[83].xCor 2858
config **.node[83].yCor 3584
config **.node[84].xCor 2999
config **.node[84].yCor 2636
config **.node[85].xCor 2905
config **.node[85].yCor 2778
config **.node[86].xCor 2653
config **.node[86].yCor 2845
config **.node[87].xCor 2864
config **.node[87].yCor 2836
config **.node[88].xCor 2426
config **.node[88].yCor 2892
config **.node[89].xCor 2964
config **.node[89].yCor 2804
config **.node[90].xCor 2586
config **.node[90].yCor 3135
config **.node[91].xCor 2864
config **.node[91].yCor 2980
config **.node[92].xCor 2527
config **.node[92].yCor 3219
config **.node[93].xCor 2863
config **.node[93].yCor 3142
config **.node[94].xCor 2485
config **.node[94].yCor 3269
config **.node[95].xCor 2653
config **.node[95].yCor 1065
config **.node[96].xCor 4062
config **.node[96].yCor 400
config **.node[97].xCor 5762
config **.node[97].yCor 3023
config **.node[98].xCor 1414
config **.node[98].yCor 3461
config **.node[99].xCor 2911
config **.node[99].yCor 1737
config **.node[100].xCor 2595
config **.node[100].yCor 2299
config **.node[101].xCor 2702
config **.node[101].yCor 3419
config **.node[102].xCor 2813
config **.node[102].yCor 3307
config **.node[103].xCor 2638
config **.node[103].yCor 2258
config **.node[104].xCor 2590
config **.node[104].yCor 3125
config **.node[105].xCor 1856
config **.node[105].yCor 2990
config **.node[106].xCor 1894
config **.node[106].yCor 2239
config **.node[107].xCor 383
config **.node[107].yCor 1251
config **.node[108].xCor 3447
config **.node[108].yCor 5489
config **.node[109].xCor 3450
config **.node[109].yCor 5697
config **.node[110].xCor 2719
config **.node[110].yCor 1920
config **.node[111].xCor 2085
config **.node[111].yCor 2389
config **.node[112].xCor 1910
config **.node[112].yCor 2548
config **.node[113].xCor 2069
config **.node[113].yCor 2050
config **.node[114].xCor 2184
config **.node[114].yCor 2209
config **.node[115].xCor 2278
config **.node[115].yCor 2390
config **.node[116].xCor 2249
config **.node[116].yCor 2299
config **.node[117].xCor 2356
config **.node[117].yCor 2303
config **.node[118].xCor 2192
config **.node[118].yCor 2475
config **.node[119].xCor 1720
config **.node[119].yCor 2911
config **.node[120].xCor 2400
config **.node[120].yCor 2887
config **.node[121].xCor 3344
config **.node[121].yCor 1890
config **.node[122].xCor 3136
config **.node[122].yCor 2418
config **.node[123].xCor 3243
config **.node[123].yCor 2525
config **.node[124].xCor 2396
config **.node[124].yCor 1267
config **.node[125].xCor 467
config **.node[125].yCor 1875
config **.node[126].xCor 3506
config **.node[126].yCor 1221
config **.node[127].xCor 1034
config **.node[127].yCor 1474
config **.node[128].xCor 2908
config **.node[128].yCor 1784
config **.node[129].xCor 2876
config **.node[129].yCor 1761
config **.node[130].xCor 2849
config **.node[130].yCor 1795
config **.node[131].xCor 3029
config **.node[131].yCor 1859
config **.node[132].xCor 2924
config **.node[132].yCor 1848
config **.node[133].xCor 3493
config **.node[133].yCor 1559
config **.node[134].xCor 2760
config **.node[134].yCor 1761
config **.node[135].xCor 1644
config **.node[135].yCor 3755
config **.node[136].xCor 1463
config **.node[136].yCor 3432
config **.node[137].xCor 2595
config **.node[137].yCor 2849
config **.node[138].xCor 2581
config **.node[138].yCor 2867
config **.node[139].xCor 2524
config **.node[139].yCor 2911
config **.node[140].xCor 2570
config **.node[140].yCor 2924
config **.node[141].xCor 2676
config **.node[141].yCor 2890
config **.node[142].xCor 2666
config **.node[142].yCor 2876
config **.node[143].xCor 3735
config **.node[143].yCor 1726
config **.node[144].xCor 1637
config **.node[144].yCor 3438

vector 0 TaxiNetwork.node[10] visitedPerTimestep ETV
vector 1 TaxiNetwork.node[93] visitedPerTimestep ETV
vector 2 TaxiNetwork.node[16] visitedPerTimestep ETV
vector 3 TaxiNetwork.node[0] visitedPerTimestep ETV
vector 4 TaxiNetwork.node[87] visitedPerTimestep ETV
vector 5 TaxiNetwork.node[45] visitedPerTimestep ETV
vector 6 TaxiNetwork.node[85] visitedPerTimestep ETV
vector 7 TaxiNetwork.node[140] visitedPerTimestep ETV
vector 8 TaxiNetwork.node[53] visitedPerTimestep ETV
vector 9 TaxiNetwork.node[9] visitedPerTimestep ETV
vector 10 TaxiNetwork.node[123] visitedPerTimestep ETV
vector 11 TaxiNetwork.node[141] visitedPerTimestep ETV
vector 12 TaxiNetwork.node[120] visitedPerTimestep ETV
vector 13 TaxiNetwork.node[92] visitedPerTimestep ETV
vector 14 TaxiNetwork.node[11] visitedPerTimestep ETV
vector 15 TaxiNetwork.node[36] visitedPerTimestep ETV
vector 16 TaxiNetwork.node[8] visitedPerTimestep ETV
vector 17 TaxiNetwork.node[100] visitedPerTimestep ETV
vector 18 TaxiNetwork.node[14] visitedPerTimestep ETV
vector 19 TaxiNetwork.node[116] visitedPerTimestep ETV
vector 20 TaxiNetwork.node[84] visitedPerTimestep ETV
vector 21 TaxiNetwork.node[13] visitedPerTimestep ETV
vector 22 TaxiNetwork.node[44] visitedPerTimestep ETV
vector 23 TaxiNetwork.node[88] visitedPerTimestep ETV
vector 24 TaxiNetwork.node[57] visitedPerTimestep ETV
vector 25 TaxiNetwork.node[114] visitedPerTimestep ETV
vector 26 TaxiNetwork.node[5] visitedPerTimestep ETV
vector 27 TaxiNetwork.node[94] visitedPerTimestep ETV
vector 28 TaxiNetwork.node[54] visitedPerTimestep ETV
vector 29 TaxiNetwork.node[52] visitedPerTimestep ETV
vector 30 TaxiNetwork.node[58] visitedPerTimestep ETV
vector 31 TaxiNetwork.node[115] visitedPerTimestep ETV
vector 32 TaxiNetwork.node[106] visitedPerTimestep ETV
vector 33 TaxiNetwork.node[119] visitedPerTimestep ETV
vector 34 TaxiNetwork.node[105] visitedPerTimestep ETV
vector 35 TaxiNetwork.node[111] visitedPerTimestep ETV
vector 36 TaxiNetwork.node[17] visitedPerTimestep ETV
vector 37 TaxiNetwork.node[15] visitedPerTimestep ETV
vector 38 TaxiNetwork.node[20] visitedPerTimestep ETV
vector 39 TaxiNetwork.node[139] visitedPerTimestep ETV
vector 40 TaxiNetwork.node[7] visitedPerTimestep ETV
vector 41 TaxiNetwork.node[90] visitedPerTimestep ETV
vector 42 TaxiNetwork.node[29] visitedPerTimestep ETV
vector 43 TaxiNetwork.node[22] visitedPerTimestep ETV
vector 44 TaxiNetwork.node[28] visitedPerTimestep ETV
vector 45 TaxiNetwork.node[104] visitedPerTimestep ETV
vector 46 TaxiNetwork.node[33] visitedPerTimestep ETV
vector 47 TaxiNetwork.node[101] visitedPerTimestep ETV
vector 48 TaxiNetwork.node[37] visitedPerTimestep ETV
vector 49 TaxiNetwork.node[82] visitedPerTimestep ETV
vector 50 TaxiNetwork.node[142] visitedPerTimestep ETV
vector 51 TaxiNetwork.node[30] visitedPerTimestep ETV
vector 52 TaxiNetwork.node[31] visitedPerTimestep ETV
vector 53 TaxiNetwork.node[40] visitedPerTimestep ETV
vector 54 TaxiNetwork.node[86] visitedPerTimestep ETV
vector 55 TaxiNetwork.node[138] visitedPerTimestep ETV
vector 56 TaxiNetwork.node[117] visitedPerTimestep ETV
vector 57 TaxiNetwork.node[137] visitedPerTimestep ETV
vector 58 TaxiNetwork.node[103] visitedPerTimestep ETV
vector 59 TaxiNetwork.node[132] visitedPerTimestep ETV
vector 60 TaxiNetwork.node[110] visitedPerTimestep ETV
vector 61 TaxiNetwork.node[70] visitedPerTimestep ETV
vector 62 TaxiNetwork.node[68] visitedPerTimestep ETV
vector 63 TaxiNetwork.node[60] visitedPerTimestep ETV
vector 64 TaxiNetwork.node[126] visitedPerTimestep ETV
vector 65 TaxiNetwork.node[64] visitedPerTimestep ETV
vector 66 TaxiNetwork.node[121] visitedPerTimestep ETV
vector 67 TaxiNetwork.node[128] visitedPerTimestep ETV
vector 68 TaxiNetwork.node[127] visitedPerTimestep ETV
vector 69 TaxiNetwork.node[81] visitedPerTimestep ETV
vector 70 TaxiNetwork.node[118] visitedPerTimestep ETV
vector 71 TaxiNetwork.node[112] visitedPerTimestep ETV
vector 72 TaxiNetwork.node[3] visitedPerTimestep ETV
vector 73 TaxiNetwork.node[18] visitedPerTimestep ETV
vector 74 TaxiNetwork.node[91] visitedPerTimestep ETV
vector 75 TaxiNetwork.node[12] visitedPerTimestep ETV
vector 76 TaxiNetwork.node[89] visitedPerTimestep ETV
vector 77 TaxiNetwork.node[2] visitedPerTimestep ETV
vector 78 TaxiNetwork.node[4] visitedPerTimestep ETV
vector 79 TaxiNetwork.node[63] visitedPerTimestep ETV
vector 80 TaxiNetwork.node[99] visitedPerTimestep ETV
vector 81 TaxiNetwork.node[133] visitedPerTimestep ETV
vector 82 TaxiNetwork.node[61] visitedPerTimestep ETV
vector 83 TaxiNetwork.node[73] visitedPerTimestep ETV
vector 84 TaxiNetwork.node[76] visitedPerTimestep ETV
vector 85 TaxiNetwork.node[66] visitedPerTimestep ETV
vector 86 TaxiNetwork.node[122] visitedPerTimestep ETV
vector 87 TaxiNetwork.node[32] visitedPerTimestep ETV
vector 88 TaxiNetwork.node[39] visitedPerTimestep ETV
vector 89 TaxiNetwork.node[35] visitedPerTimestep ETV
vector 90 TaxiNetwork.node[46] visitedPerTimestep ETV
vector 91 TaxiNetwork.node[6] visitedPerTimestep ETV
vector 92 TaxiNetwork.node[1] visitedPerTimestep ETV
vector 93 TaxiNetwork.node[134] visitedPerTimestep ETV
vector 94 TaxiNetwork.node[131] visitedPerTimestep ETV
vector 95 TaxiNetwork.node[65] visitedPerTimestep ETV
vector 96 TaxiNetwork.node[19] visitedPerTimestep ETV
vector 97 TaxiNetwork.node[59] visitedPerTimestep ETV
vector 98 TaxiNetwork.node[55] visitedPerTimestep ETV
vector 99 TaxiNetwork.node[102] visitedPerTimestep ETV
vector 100 TaxiNetwork.node[83] visitedPerTimestep ETV
vector 101 TaxiNetwork.node[143] visitedPerTimestep ETV
vector 102 TaxiNetwork.node[67] visitedPerTimestep ETV
vector 103 TaxiNetwork.node[69] visitedPerTimestep ETV
vector 104 TaxiNetwork.node[79] visitedPerTimestep ETV
vector 105 TaxiNetwork.node[124] visitedPerTimestep ETV
vector 106 TaxiNetwork.node[56] visitedPerTimestep ETV
vector 107 TaxiNetwork.node[130] visitedPerTimestep ETV
vector 108 TaxiNetwork.node[113] visitedPerTimestep ETV
vector 109 TaxiNetwork.node[75] visitedPerTimestep ETV
vector 110 TaxiNetwork.node[78] visitedPerTimestep ETV
vector 111 TaxiNetwork.node[72] visitedPerTimestep ETV
vector 112 TaxiNetwork.node[62] visitedPerTimestep ETV
vector 113 TaxiNetwork.node[24] visitedPerTimestep ETV
vector 114 TaxiNetwork.node[34] visitedPerTimestep ETV
vector 115 TaxiNetwork.node[26] visitedPerTimestep ETV
vector 116 TaxiNetwork.node[129] visitedPerTimestep ETV
vector 117 TaxiNetwork.node[80] visitedPerTimestep ETV
vector 118 TaxiNetwork.node[27] visitedPerTimestep ETV
vector 119 TaxiNetwork.node[21] visitedPerTimestep ETV
vector 120 TaxiNetwork.node[74] visitedPerTimestep ETV
vector 121 TaxiNetwork.node[144] visitedPerTimestep ETV
vector 122 TaxiNetwork.node[95] visitedPerTimestep ETV
vector 123 TaxiNetwork.node[71] visitedPerTimestep ETV
vector 124 TaxiNetwork.node[107] visitedPerTimestep ETV
vector 125 TaxiNetwork.node[77] visitedPerTimestep ETV
0	1	0	1
0	197	0	91
0	252	0	97
0	295	0	99
0	311	0	100
0	415	0	113
0	469	0	116
0	474	0	116
0	641	0	118
0	692	0	119
0	706	0	119
0	712	0	119
0	715	0	119
0	793	0	121
0	910	0	122
0	984	0	122
0	1340	0	125
0	2138	0	134
0	2218	0	134
0	2312	0	134
0	2528	0	134
0	2710	0	142
0	2734	0	142
0	2890	0	142
0	3112	0	142
0	4696	0	143
0	5724	0	143
0	5740	0	143
1	2	0	2
1	184	0	90
1	309	0	100
1	312	0	100
1	439	0	115
1	529	0	118
1	774	0	119
1	835	0	122
1	886	0	122
1	904	0	122
1	1064	0	123
1	1368	0	125
1	1446	0	125
1	1598	0	126
1	1636	0	126
1	2270	0	134
1	2584	0	142
1	2636	0	142
1	2850	0	142
1	2868	0	142
1	2936	0	142
1	3912	0	142
1	3984	0	142
1	4388	0	142
1	4964	0	143
1	5128	0	143
1	5568	0	143
2	3	0	3
2	10	0	9
2	16	0	13
2	57	0	39
2	134	0	77
2	271	0	98
2	273	0	98
2	416	0	113
2	524	0	118
2	544	0	118
2	669	0	119
2	826	0	122
2	854	0	122
2	856	0	122
2	1078	0	123
2	1162	0	123
2	1484	0	125
2	1672	0	127
2	2426	0	134
2	2748	0	142
2	3252	0	142
2	3692	0	142
2	4860	0	143
2	5888	0	143
2	5940	0	143
2	5992	0	143
3	4	0	4
3	12	0	10
3	135	0	77
3	247	0	97
3	313	0	100
3	333	0	101
3	377	0	108
3	497	0	118
3	558	0	118
3	575	0	118
3	695	0	119
3	849	0	122
3	918	0	122
3	1236	0	124
3	1744	0	127
3	2180	0	134
3	2212	0	134
3	2570	0	142
3	2688	0	142
3	2718	0	142
3	3812	0	142
3	4328	0	142
3	4364	0	142
3	4884	0	143
3	4976	0	143
3	5048	0	143
3	5668	0	143
3	6552	0	144
4	5	0	5
4	66	0	41
4	187	0	91
4	211	0	93
4	303	0	100
4	443	0	115
4	637	0	118
4	694	0	119
4	795	0	121
4	806	0	121
4	824	0	122
4	889	0	122
4	903	0	122
4	1054	0	123
4	1350	0	125
4	1634	0	126
4	1650	0	127
4	1774	0	127
4	2146	0	134
4	2240	0	134
4	2354	0	134
4	2524	0	134
4	2610	0	142
4	2614	0	142
4	4944	0	143
4	5324	0	143
4	5544	0	143
4	5952	0	143
5	6	0	6
5	194	0	91
5	297	0	99
5	448	0	115
5	522	0	118
5	541	0	118
5	652	0	118
5	804	0	121
5	905	0	122
5	964	0	122
5	1076	0	123
5	1246	0	124
5	1270	0	124
5	1502	0	125
5	1616	0	126
5	1752	0	127
5	1984	0	127
5	2674	0	142
5	2720	0	142
5	4060	0	142
5	4476	0	142
5	4648	0	143
5	4744	0	143
5	4832	0	143
5	4888	0	143
5	4932	0	143
5	5228	0	143
5	5280	0	143
5	5612	0	143
5	5708	0	143
6	7	0	7
6	40	0	27
6	171	0	87
6	280	0	98
6	378	0	108
6	520	0	118
6	576	0	118
6	588	0	118
6	642	0	118
6	764	0	119
6	801	0	121
6	803	0	121
6	848	0	122
6	875	0	122
6	923	0	122
6	926	0	122
6	1452	0	125
6	1662	0	127
6	1666	0	127
6	1802	0	127
6	2230	0	134
6	2250	0	134
6	2328	0	134
6	2382	0	134
6	2400	0	134
6	2454	0	134
6	2592	0	142
6	4660	0	143
6	4856	0	143
6	5468	0	143
6	5844	0	143
6	5932	0	143
6	6608	0	144
7	8	0	8
7	20	0	15
7	140	0	77
7	150	0	79
7	191	0	91
7	242	0	97
7	257	0	97
7	322	0	100
7	367	0	107
7	371	0	107
7	538	0	118
7	703	0	119
7	725	0	119
7	822	0	122
7	827	0	122
7	841	0	122
7	847	0	122
7	949	0	122
7	1006	0	122
7	1014	0	122
7	1072	0	123
7	1388	0	125
7	1610	0	126
7	1764	0	127
7	2182	0	134
7	2392	0	134
7	2444	0	134
7	2518	0	134
7	2542	0	138
7	2658	0	142
7	3104	0	142
7	3392	0	142
7	3676	0	142
7	3816	0	142
7	4052	0	142
7	4264	0	142
7	4296	0	142
7	4680	0	143
7	4756	0	143
7	5532	0	143
7	5584	0	143
7	6104	0	143
7	6148	0	143
8	9	0	9
8	28	0	20
8	94	0	57
8	259	0	97
8	277	0	98
8	526	0	118
8	594	0	118
8	840	0	122
8	915	0	122
8	1380	0	125
8	1476	0	125
8	1504	0	125
8	1512	0	125
8	1604	0	126
8	1608	0	126
8	1796	0	127
8	2394	0	134
8	2878	0	142
8	2944	0	142
8	3708	0	142
8	3788	0	142
8	4404	0	142
8	4752	0	143
8	4812	0	143
8	5064	0	143
8	5176	0	143
8	5580	0	143
8	5608	0	143
8	5996	0	143
8	6476	0	144
8	6576	0	144
9	11	0	10
9	173	0	87
9	192	0	91
9	246	0	97
9	262	0	97
9	379	0	108
9	635	0	118
9	682	0	119
9	765	0	119
9	874	0	122
9	878	0	122
9	925	0	122
9	948	0	122
9	1346	0	125
9	1354	0	125
9	1646	0	127
9	1740	0	127
9	1750	0	127
9	1776	0	127
9	1782	0	127
9	2136	0	134
9	2176	0	134
9	2302	0	134
9	2352	0	134
9	2504	0	134
9	2532	0	134
9	2536	0	135
9	2660	0	142
9	2706	0	142
9	2872	0	142
9	3120	0	142
9	3288	0	142
9	4636	0	143
9	4848	0	143
9	5828	0	143
9	5936	0	143
9	6136	0	143
9	6544	0	144
10	13	0	11
10	31	0	20
10	167	0	86
10	228	0	96
10	232	0	96
10	506	0	118
10	523	0	118
10	634	0	118
10	727	0	119
10	855	0	122
10	928	0	122
10	957	0	122
10	962	0	122
10	965	0	122
10	1144	0	123
10	1396	0	125
10	1738	0	127
10	1778	0	127
10	2384	0	134
10	2530	0	134
10	3048	0	142
10	3456	0	142
10	4700	0	143
10	5592	0	143
10	5736	0	143
11	14	0	12
11	22	0	16
11	95	0	57
11	208	0	93
11	278	0	98
11	414	0	113
11	464	0	116
11	527	0	118
11	537	0	118
11	545	0	118
11	671	0	119
11	777	0	119
11	866	0	122
11	900	0	122
11	967	0	122
11	978	0	122
11	980	0	122
11	1062	0	123
11	1090	0	123
11	1360	0	125
11	1394	0	125
11	1440	0	125
11	1688	0	127
11	1742	0	127
11	2268	0	134
11	2314	0	134
11	2576	0	142
11	2712	0	142
11	2866	0	142
11	2892	0	142
11	2970	0	142
11	3076	0	142
11	3332	0	142
11	3632	0	142
11	4224	0	142
11	4312	0	142
11	4928	0	143
11	5620	0	143
11	5712	0	143
11	5880	0	143
11	5892	0	143
11	6000	0	143
12	15	0	13
12	18	0	14
12	26	0	19
12	119	0	70
12	153	0	79
12	189	0	91
12	269	0	98
12	287	0	99
12	364	0	107
12	460	0	116
12	504	0	118
12	567	0	118
12	681	0	119
12	769	0	119
12	832	0	122
12	977	0	122
12	1038	0	122
12	1044	0	123
12	1468	0	125
12	1472	0	125
12	1664	0	127
12	2308	0	134
12	2374	0	134
12	2596	0	142
12	2684	0	142
12	2694	0	142
12	2704	0	142
12	2852	0	142
12	3140	0	142
12	3352	0	142
12	3736	0	142
12	5052	0	143
12	5180	0	143
12	5252	0	143
12	5600	0	143
12	5656	0	143
12	5672	0	143
12	5680	0	143
12	5904	0	143
12	6584	0	144
13	17	0	14
13	148	0	79
13	549	0	118
13	714	0	119
13	762	0	119
13	770	0	119
13	876	0	122
13	879	0	122
13	911	0	122
13	985	0	122
13	1030	0	122
13	1234	0	124
13	1352	0	125
13	1670	0	127
13	1682	0	127
13	1976	0	127
13	1980	0	127
13	2148	0	134
13	2330	0	134
13	2356	0	134
13	2464	0	134
13	2502	0	134
13	2692	0	142
13	2736	0	142
13	2740	0	142
13	2910	0	142
13	3108	0	142
13	3728	0	142
13	3948	0	142
13	4000	0	142
13	4248	0	142
13	4288	0	142
13	5096	0	143
13	5616	0	143
13	6468	0	144
13	6560	0	144
14	19	0	15
14	29	0	20
14	65	0	41
14	155	0	79
14	213	0	93
14	265	0	97
14	270	0	98
14	305	0	100
14	363	0	107
14	399	0	109
14	480	0	116
14	756	0	119
14	758	0	119
14	921	0	122
14	1002	0	122
14	1092	0	123
14	1220	0	124
14	1422	0	125
14	1434	0	125
14	1560	0	126
14	1594	0	126
14	2404	0	134
14	2410	0	134
14	2446	0	134
14	2680	0	142
14	2686	0	142
14	2724	0	142
14	2752	0	142
14	2812	0	142
14	2948	0	142
14	2960	0	142
14	3636	0	142
14	3776	0	142
14	4056	0	142
14	4892	0	143
14	5028	0	143
14	5236	0	143
15	21	0	16
15	70	0	43
15	86	0	52
15	89	0	54
15	320	0	100
15	413	0	113
15	458	0	116
15	1358	0	125
15	1998	0	127
15	2010	0	127
15	2258	0	134
15	2462	0	134
15	2632	0	142
15	2844	0	142
15	2976	0	142
15	3260	0	142
15	3932	0	142
15	5104	0	143
15	5564	0	143
15	6448	0	144
15	6492	0	144
15	6500	0	144
16	23	0	17
16	574	0	118
16	645	0	118
16	721	0	119
16	768	0	119
16	887	0	122
16	976	0	122
16	1426	0	125
16	1506	0	125
16	1640	0	127
16	1762	0	127
16	1798	0	127
16	1982	0	127
16	2310	0	134
16	2386	0	134
16	2412	0	134
16	2466	0	134
16	2590	0	142
16	2914	0	142
16	3216	0	142
16	4216	0	142
16	4348	0	142
16	5136	0	143
16	5972	0	143
16	6040	0	143
16	6108	0	143
16	6472	0	144
17	24	0	18
17	99	0	58
17	102	0	60
17	128	0	75
17	169	0	86
17	231	0	96
17	395	0	109
17	462	0	116
17	683	0	119
17	691	0	119
17	767	0	119
17	850	0	122
17	871	0	122
17	927	0	122
17	947	0	122
17	1158	0	123
17	1622	0	126
17	1644	0	127
17	1804	0	127
17	2052	0	127
17	2242	0	134
17	2452	0	134
17	2640	0	142
17	2940	0	142
17	2968	0	142
17	3044	0	142
17	3052	0	142
17	3164	0	142
17	3428	0	142
17	3444	0	142
17	3516	0	142
17	3596	0	142
17	3808	0	142
17	4204	0	142
17	4360	0	142
17	4420	0	142
17	4844	0	143
17	4996	0	143
17	5480	0	143
17	5588	0	143
17	5744	0	143
17	5764	0	143
17	5984	0	143
17	6080	0	143
18	25	0	19
18	30	0	20
18	64	0	41
18	235	0	96
18	449	0	115
18	463	0	116
18	561	0	118
18	702	0	119
18	707	0	119
18	867	0	122
18	877	0	122
18	973	0	122
18	1012	0	122
18	1256	0	124
18	1654	0	127
18	1692	0	127
18	2222	0	134
18	2228	0	134
18	2438	0	134
18	2456	0	134
18	2526	0	134
18	2534	0	134
18	2662	0	142
18	2750	0	142
18	2814	0	142
18	2824	0	142
18	2902	0	142
18	3036	0	142
18	3092	0	142
18	3124	0	142
18	3388	0	142
18	3396	0	142
18	3624	0	142
18	4024	0	142
18	4376	0	142
18	5332	0	143
18	5460	0	143
18	5472	0	143
18	5824	0	143
18	5832	0	143
19	27	0	20
19	266	0	97
19	276	0	98
19	393	0	109
19	666	0	119
19	678	0	119
19	853	0	122
19	1042	0	123
19	1160	0	123
19	1514	0	125
19	1614	0	126
19	1788	0	127
19	1830	0	127
19	2432	0	134
19	2722	0	142
19	2818	0	142
19	3012	0	142
19	3308	0	142
19	3688	0	142
19	4472	0	142
19	4820	0	143
19	5068	0	143
19	5288	0	143
19	5968	0	143
20	32	0	21
20	34	0	22
20	129	0	75
20	188	0	91
20	316	0	100
20	327	0	100
20	380	0	108
20	531	0	118
20	711	0	119
20	720	0	119
20	790	0	121
20	1048	0	123
20	1136	0	123
20	1228	0	124
20	1398	0	125
20	1416	0	125
20	2110	0	133
20	2708	0	142
20	4316	0	142
20	4344	0	142
20	4640	0	143
20	4712	0	143
20	4988	0	143
20	5448	0	143
20	6072	0	143
20	6132	0	143
20	6440	0	144
20	6596	0	144
21	33	0	22
21	151	0	79
21	198	0	91
21	212	0	93
21	525	0	118
21	570	0	118
21	708	0	119
21	759	0	119
21	814	0	121
21	836	0	122
21	869	0	122
21	950	0	122
21	1130	0	123
21	1140	0	123
21	1250	0	124
21	1342	0	125
21	1430	0	125
21	1618	0	126
21	1780	0	127
21	2406	0	134
21	2874	0	142
21	2954	0	142
21	3100	0	142
21	4016	0	142
21	4320	0	142
21	4444	0	142
21	4664	0	143
21	4796	0	143
21	5552	0	143
21	5728	0	143
21	5896	0	143
21	5924	0	143
21	6012	0	143
21	6028	0	143
21	6624	0	145
22	35	0	23
22	61	0	41
22	229	0	96
22	274	0	98
22	335	0	101
22	470	0	116
22	500	0	118
22	519	0	118
22	546	0	118
22	587	0	118
22	719	0	119
22	757	0	119
22	779	0	119
22	796	0	121
22	895	0	122
22	897	0	122
22	941	0	122
22	951	0	122
22	1010	0	122
22	1034	0	122
22	1784	0	127
22	1822	0	127
22	1990	0	127
22	2154	0	134
22	2160	0	134
22	2206	0	134
22	2224	0	134
22	2326	0	134
22	2390	0	134
22	2430	0	134
22	2580	0	142
22	2670	0	142
22	2816	0	142
22	3208	0	142
22	3240	0	142
22	3796	0	142
22	4044	0	142
22	4340	0	142
22	4668	0	143
22	4708	0	143
22	4900	0	143
22	4980	0	143
22	5516	0	143
22	5604	0	143
22	5848	0	143
22	6060	0	143
23	36	0	24
23	195	0	91
23	258	0	97
23	366	0	107
23	419	0	113
23	468	0	116
23	535	0	118
23	584	0	118
23	718	0	119
23	837	0	122
23	916	0	122
23	1050	0	123
23	1088	0	123
23	1150	0	123
23	1436	0	125
23	1458	0	125
23	1494	0	125
23	1810	0	127
23	1828	0	127
23	2284	0	134
23	2304	0	134
23	2522	0	134
23	2600	0	142
23	2638	0	142
23	3008	0	142
23	3924	0	142
23	4048	0	142
23	4072	0	142
23	4716	0	143
23	4728	0	143
23	4904	0	143
23	5948	0	143
23	6084	0	143
23	6128	0	143
23	6540	0	144
24	37	0	25
24	118	0	70
24	123	0	72
24	216	0	93
24	581	0	118
24	953	0	122
24	2286	0	134
24	3304	0	142
24	4432	0	142
24	4816	0	143
24	5908	0	143
25	38	0	26
25	44	0	30
25	357	0	106
25	386	0	108
25	851	0	122
25	1156	0	123
25	1428	0	125
25	2408	0	134
25	3616	0	142
25	4428	0	142
25	4652	0	143
25	5284	0	143
25	5688	0	143
25	5916	0	143
26	39	0	27
26	215	0	93
26	275	0	98
26	289	0	99
26	568	0	118
26	580	0	118
26	582	0	118
26	639	0	118
26	773	0	119
26	802	0	121
26	885	0	122
26	963	0	122
26	1146	0	123
26	1624	0	126
26	1970	0	127
26	2292	0	134
26	2512	0	134
26	2586	0	142
26	2666	0	142
26	2820	0	142
26	3196	0	142
26	3236	0	142
26	3340	0	142
26	4300	0	142
26	4704	0	143
26	4916	0	143
26	5296	0	143
26	5304	0	143
26	5684	0	143
26	5720	0	143
26	5732	0	143
26	6092	0	143
26	6588	0	144
27	41	0	28
27	76	0	47
27	85	0	52
27	96	0	57
27	180	0	89
27	256	0	97
27	293	0	99
27	318	0	100
27	430	0	115
27	543	0	118
27	670	0	119
27	673	0	119
27	723	0	119
27	890	0	122
27	1084	0	123
27	1454	0	125
27	1690	0	127
27	2664	0	142
27	2742	0	142
27	2924	0	142
27	3256	0	142
27	3376	0	142
27	4368	0	142
27	4380	0	142
27	4452	0	142
27	4724	0	143
27	4760	0	143
27	5636	0	143
27	5780	0	143
27	6016	0	143
27	6024	0	143
28	42	0	29
28	147	0	79
28	176	0	88
28	190	0	91
28	815	0	121
28	843	0	122
28	1086	0	123
28	1378	0	125
28	1600	0	126
28	2622	0	142
28	2894	0	142
28	3088	0	142
28	3680	0	142
28	4036	0	142
28	5572	0	143
28	6008	0	143
28	6480	0	144
29	43	0	30
29	60	0	41
29	203	0	92
29	241	0	97
29	369	0	107
29	679	0	119
29	821	0	122
29	870	0	122
29	1040	0	122
29	1258	0	124
29	1612	0	126
29	2896	0	142
29	2966	0	142
29	3620	0	142
29	3684	0	142
29	4076	0	142
29	4084	0	142
29	4396	0	142
29	4792	0	143
29	5644	0	143
29	5704	0	143
29	5944	0	143
29	6156	0	143
29	6164	0	143
29	6508	0	144
29	6620	0	144
30	45	0	31
30	356	0	106
30	390	0	109
30	2758	0	142
30	3604	0	142
30	3612	0	142
30	5692	0	143
30	6172	0	144
31	46	0	32
31	53	0	36
31	63	0	41
31	204	0	92
31	461	0	116
31	562	0	118
31	565	0	118
31	651	0	118
31	828	0	122
31	863	0	122
31	1164	0	123
31	1460	0	125
31	1694	0	127
31	1986	0	127
31	2646	0	142
31	2668	0	142
31	3360	0	142
31	4436	0	142
31	4748	0	143
31	5260	0	143
31	6056	0	143
31	6616	0	144
32	47	0	33
32	385	0	108
32	596	0	118
32	3712	0	142
32	4412	0	142
32	5700	0	143
33	48	0	34
33	51	0	36
33	360	0	106
33	676	0	119
33	2964	0	142
33	4788	0	143
33	6160	0	143
34	49	0	35
34	838	0	122
34	1794	0	127
34	2372	0	134
34	2854	0	142
34	5676	0	143
35	50	0	36
35	52	0	36
35	152	0	79
35	202	0	92
35	387	0	108
35	665	0	119
35	668	0	119
35	954	0	122
35	1152	0	123
35	2306	0	134
35	4908	0	143
35	5696	0	143
35	5912	0	143
36	54	0	37
36	62	0	41
36	127	0	75
36	132	0	77
36	205	0	92
36	264	0	97
36	283	0	98
36	532	0	118
36	563	0	118
36	643	0	118
36	647	0	118
36	704	0	119
36	760	0	119
36	829	0	122
36	1658	0	127
36	2134	0	134
36	2232	0	134
36	2360	0	134
36	2604	0	142
36	2840	0	142
36	3064	0	142
36	3160	0	142
36	3248	0	142
36	3292	0	142
36	3696	0	142
36	4336	0	142
36	4464	0	142
36	5172	0	143
36	5244	0	143
36	6572	0	144
37	55	0	38
37	69	0	43
37	82	0	50
37	139	0	77
37	143	0	77
37	243	0	97
37	250	0	97
37	285	0	99
37	328	0	100
37	417	0	113
37	436	0	115
37	794	0	121
37	800	0	121
37	817	0	121
37	1008	0	122
37	1070	0	123
37	1224	0	124
37	1254	0	124
37	1372	0	125
37	1470	0	125
37	1500	0	125
37	1648	0	127
37	1676	0	127
37	1758	0	127
37	1800	0	127
37	1968	0	127
37	2144	0	134
37	2158	0	134
37	2272	0	134
37	2296	0	134
37	2332	0	134
37	2346	0	134
37	2566	0	142
37	3128	0	142
37	3664	0	142
37	3820	0	142
37	4028	0	142
37	5108	0	143
37	5124	0	143
38	56	0	39
38	149	0	79
38	175	0	88
38	261	0	97
38	288	0	99
38	321	0	100
38	330	0	100
38	411	0	113
38	437	0	115
38	781	0	119
38	799	0	121
38	816	0	121
38	1056	0	123
38	1222	0	124
38	1386	0	125
38	1432	0	125
38	1974	0	127
38	2204	0	134
38	2338	0	134
38	2418	0	134
38	2952	0	142
38	3024	0	142
38	3080	0	142
38	3152	0	142
38	3368	0	142
38	3648	0	142
38	4008	0	142
38	4040	0	142
38	4256	0	142
38	4864	0	143
38	5820	0	143
38	6088	0	143
38	6456	0	144
39	58	0	40
39	260	0	97
39	304	0	100
39	362	0	107
39	365	0	107
39	421	0	113
39	479	0	116
39	534	0	118
39	554	0	118
39	644	0	118
39	674	0	119
39	699	0	119
39	839	0	122
39	844	0	122
39	857	0	122
39	888	0	122
39	922	0	122
39	942	0	122
39	1148	0	123
39	1260	0	124
39	1348	0	125
39	1364	0	125
39	1384	0	125
39	1480	0	125
39	1632	0	126
39	1674	0	127
39	2000	0	127
39	2648	0	142
39	2856	0	142
39	2912	0	142
39	2938	0	142
39	3300	0	142
39	3312	0	142
39	3700	0	142
39	4644	0	143
39	4828	0	143
39	4912	0	143
39	5140	0	143
39	5268	0	143
39	6100	0	143
39	6604	0	144
40	59	0	41
40	172	0	87
40	193	0	91
40	240	0	97
40	368	0	107
40	445	0	115
40	579	0	118
40	710	0	119
40	780	0	119
40	924	0	122
40	955	0	122
40	1344	0	125
40	1382	0	125
40	1400	0	125
40	1450	0	125
40	1478	0	125
40	1510	0	125
40	1790	0	127
40	2516	0	134
40	2572	0	142
40	2612	0	142
40	2676	0	142
40	4208	0	142
40	4392	0	142
40	4684	0	143
40	4808	0	143
40	4872	0	143
40	4972	0	143
40	5292	0	143
40	5716	0	143
40	6032	0	143
40	6052	0	143
40	6068	0	143
40	6140	0	143
40	6532	0	144
41	67	0	42
41	136	0	77
41	141	0	77
41	146	0	79
41	209	0	93
41	429	0	115
41	591	0	118
41	593	0	118
41	636	0	118
41	640	0	118
41	693	0	119
41	830	0	122
41	912	0	122
41	919	0	122
41	998	0	122
41	1060	0	123
41	1414	0	125
41	1456	0	125
41	1474	0	125
41	1956	0	127
41	2266	0	134
41	2458	0	134
41	2470	0	134
41	2870	0	142
41	2916	0	142
41	2974	0	142
41	3228	0	142
41	3284	0	142
41	4088	0	142
41	4220	0	142
41	4676	0	143
41	4968	0	143
41	5060	0	143
41	5652	0	143
41	5876	0	143
41	6504	0	144
41	6512	0	144
42	68	0	43
42	73	0	45
42	78	0	48
42	138	0	77
42	427	0	115
42	456	0	116
42	784	0	119
42	881	0	122
42	986	0	122
42	988	0	122
42	2348	0	134
42	2698	0	142
42	2926	0	142
42	3264	0	142
42	4456	0	142
43	71	0	44
43	426	0	115
43	987	0	122
43	992	0	122
43	1952	0	127
43	2920	0	142
43	2928	0	142
43	2980	0	142
43	2994	0	142
43	4240	0	142
43	5156	0	143
43	5868	0	143
44	72	0	45
44	4236	0	142
45	74	0	46
45	210	0	93
45	263	0	97
45	324	0	100
45	376	0	108
45	422	0	113
45	452	0	115
45	868	0	122
45	1138	0	123
45	1356	0	125
45	1606	0	126
45	1992	0	127
45	2004	0	127
45	2254	0	134
45	2280	0	134
45	2350	0	134
45	2366	0	134
45	2380	0	134
45	2540	0	137
45	2652	0	142
45	2714	0	142
45	2732	0	142
45	2746	0	142
45	2846	0	142
45	2904	0	142
45	3136	0	142
45	3792	0	142
45	3960	0	142
45	4956	0	143
45	5116	0	143
45	5164	0	143
45	5528	0	143
45	6120	0	143
45	6484	0	144
45	6524	0	144
46	75	0	47
46	183	0	90
46	412	0	113
46	431	0	115
46	442	0	115
46	655	0	118
46	661	0	119
46	882	0	122
46	1058	0	123
46	1264	0	124
46	1390	0	125
46	1680	0	127
46	1748	0	127
46	1948	0	127
46	2140	0	134
46	2344	0	134
46	2442	0	134
46	2474	0	134
46	2488	0	134
46	2496	0	134
46	2620	0	142
46	2650	0	142
46	3844	0	142
46	4032	0	142
46	4692	0	143
46	4780	0	143
46	5632	0	143
46	6452	0	144
46	6460	0	144
47	77	0	48
47	81	0	50
47	90	0	54
47	177	0	88
47	251	0	97
47	254	0	97
47	660	0	119
47	701	0	119
47	1018	0	122
47	2192	0	134
47	2494	0	134
47	2498	0	134
47	2602	0	142
47	2626	0	142
47	2728	0	142
47	3896	0	142
47	4260	0	142
47	4732	0	143
47	5220	0	143
48	79	0	49
48	440	0	115
48	2256	0	134
48	2492	0	134
48	2932	0	142
48	3832	0	142
48	3840	0	142
48	4768	0	143
48	5212	0	143
48	5872	0	143
49	80	0	50
49	137	0	77
49	435	0	115
49	453	0	115
49	548	0	118
49	656	0	118
49	1498	0	125
49	1962	0	127
49	1994	0	127
49	3180	0	142
49	3272	0	142
49	3652	0	142
49	3824	0	142
49	3864	0	142
49	3872	0	142
49	3884	0	142
49	4764	0	143
49	4960	0	143
49	5560	0	143
49	6464	0	144
50	83	0	51
50	98	0	58
50	168	0	86
50	302	0	100
50	438	0	115
50	459	0	116
50	473	0	116
50	552	0	118
50	589	0	118
50	638	0	118
50	663	0	119
50	797	0	121
50	805	0	121
50	862	0	122
50	1248	0	124
50	1376	0	125
50	1602	0	126
50	1754	0	127
50	2002	0	127
50	2012	0	127
50	2234	0	134
50	2246	0	134
50	2450	0	134
50	2482	0	134
50	2582	0	142
50	2588	0	142
50	3032	0	142
50	3144	0	142
50	3232	0	142
50	3320	0	142
50	3628	0	142
50	3928	0	142
50	3976	0	142
50	4992	0	143
51	84	0	52
51	294	0	99
51	315	0	100
51	396	0	109
51	451	0	115
51	585	0	118
51	648	0	118
51	859	0	122
51	861	0	122
51	983	0	122
51	1000	0	122
51	1080	0	123
51	1240	0	124
51	1660	0	127
51	2150	0	134
51	2190	0	134
51	2238	0	134
51	2324	0	134
51	2358	0	134
51	2654	0	142
51	2906	0	142
51	3172	0	142
51	3936	0	142
51	4012	0	142
51	4720	0	143
51	5100	0	143
51	5248	0	143
51	5444	0	143
51	5772	0	143
51	5860	0	143
51	6048	0	143
51	6064	0	143
51	6564	0	144
52	87	0	53
52	142	0	77
52	299	0	99
52	319	0	100
52	880	0	122
52	1678	0	127
52	1996	0	127
52	2116	0	134
52	2188	0	134
52	2486	0	134
52	2490	0	134
52	2700	0	142
52	2908	0	142
52	2922	0	142
52	3660	0	142
52	3836	0	142
52	3856	0	142
52	3908	0	142
52	3944	0	142
52	5800	0	143
52	5864	0	143
53	88	0	54
53	178	0	88
53	182	0	90
53	659	0	119
53	993	0	122
53	1412	0	125
53	1958	0	127
53	2500	0	134
53	2634	0	142
53	2918	0	142
53	2934	0	142
53	2990	0	142
53	3860	0	142
53	3868	0	142
53	3880	0	142
53	4952	0	143
54	91	0	55
54	218	0	93
54	307	0	100
54	375	0	108
54	472	0	116
54	478	0	116
54	763	0	119
54	776	0	119
54	778	0	119
54	807	0	121
54	914	0	122
54	1226	0	124
54	1266	0	124
54	1824	0	127
54	2950	0	142
54	3168	0	142
54	3200	0	142
54	3336	0	142
54	4332	0	142
54	4876	0	143
54	5076	0	143
54	5120	0	143
54	5132	0	143
54	5240	0	143
54	5308	0	143
54	5648	0	143
54	6152	0	143
54	6520	0	144
54	6612	0	144
55	92	0	56
55	214	0	93
55	248	0	97
55	286	0	99
55	290	0	99
55	420	0	113
55	501	0	118
55	713	0	119
55	842	0	122
55	898	0	122
55	944	0	122
55	1366	0	125
55	1786	0	127
55	2128	0	134
55	2396	0	134
55	2424	0	134
55	2468	0	134
55	2508	0	134
55	2822	0	142
55	2972	0	142
55	3072	0	142
55	3084	0	142
55	3384	0	142
55	4080	0	142
55	4292	0	142
55	4736	0	143
55	5112	0	143
55	5272	0	143
55	5540	0	143
55	5960	0	143
56	93	0	57
56	103	0	60
56	117	0	70
56	122	0	72
56	217	0	93
56	219	0	93
56	268	0	98
56	358	0	106
56	370	0	107
56	502	0	118
56	952	0	122
56	1424	0	125
56	1462	0	125
56	2574	0	142
56	3068	0	142
56	3400	0	142
56	3440	0	142
56	3448	0	142
56	4424	0	142
56	4824	0	143
56	5900	0	143
57	97	0	58
57	317	0	100
57	560	0	118
57	586	0	118
57	761	0	119
57	775	0	119
57	825	0	122
57	833	0	122
57	865	0	122
57	902	0	122
57	972	0	122
57	1068	0	123
57	1132	0	123
57	1230	0	124
57	1262	0	124
57	1626	0	126
57	1816	0	127
57	2132	0	134
57	2184	0	134
57	2282	0	134
57	2440	0	134
57	2506	0	134
57	2726	0	142
57	2956	0	142
57	3056	0	142
57	3364	0	142
57	3644	0	142
57	3956	0	142
57	4468	0	142
57	4868	0	143
57	5964	0	143
57	6004	0	143
58	100	0	59
58	154	0	79
58	245	0	97
58	272	0	98
58	291	0	99
58	372	0	107
58	383	0	108
58	400	0	109
58	507	0	118
58	557	0	118
58	559	0	118
58	564	0	118
58	772	0	119
58	791	0	121
58	873	0	122
58	1338	0	125
58	1464	0	125
58	1516	0	125
58	1564	0	126
58	1620	0	126
58	1988	0	127
58	2560	0	142
58	2838	0	142
58	3004	0	142
58	3156	0	142
58	3404	0	142
58	3520	0	142
58	3640	0	142
58	3672	0	142
58	3704	0	142
58	3740	0	142
58	4356	0	142
58	4480	0	142
58	5072	0	143
58	5316	0	143
58	5336	0	143
58	5440	0	143
58	5476	0	143
58	5624	0	143
58	5856	0	143
58	5920	0	143
58	6112	0	143
59	101	0	60
59	156	0	79
59	158	0	79
59	224	0	94
59	508	0	118
59	600	0	118
59	618	0	118
59	690	0	119
59	736	0	119
59	1094	0	123
59	1120	0	123
59	1200	0	124
59	1532	0	125
59	1934	0	127
59	2022	0	127
59	2054	0	127
59	3408	0	142
59	3504	0	142
59	3772	0	142
59	5020	0	143
59	5352	0	143
59	5384	0	143
59	5404	0	143
59	5484	0	143
59	6284	0	144
59	6380	0	144
59	6388	0	144
60	104	0	61
60	116	0	70
60	353	0	105
60	398	0	109
60	513	0	118
60	598	0	118
60	684	0	119
60	1118	0	123
60	1166	0	123
60	1546	0	126
60	1570	0	126
60	1696	0	127
60	1730	0	127
60	1832	0	127
60	1870	0	127
60	2162	0	134
60	2806	0	142
60	2882	0	142
60	3508	0	142
60	3600	0	142
60	3608	0	142
60	3748	0	142
60	5008	0	143
60	5512	0	143
60	6300	0	144
60	6320	0	144
60	6352	0	144
61	105	0	62
61	484	0	118
61	511	0	118
61	599	0	118
61	612	0	118
61	688	0	119
61	752	0	119
61	1336	0	125
61	1872	0	127
61	1902	0	127
61	1938	0	127
61	2040	0	127
61	2780	0	142
61	3420	0	142
61	3484	0	142
61	5508	0	143
61	6180	0	144
61	6196	0	144
61	6348	0	144
62	106	0	63
62	516	0	118
62	687	0	119
62	1520	0	125
62	1530	0	125
62	1698	0	127
62	1856	0	127
62	1864	0	127
62	1886	0	127
62	1914	0	127
62	2086	0	131
62	2164	0	134
62	2764	0	142
62	2778	0	142
62	3416	0	142
62	3556	0	142
62	3572	0	142
62	4556	0	143
62	5392	0	143
62	6228	0	144
62	6296	0	144
62	6416	0	144
63	107	0	64
63	165	0	85
63	223	0	94
63	346	0	103
63	351	0	105
63	489	0	118
63	617	0	118
63	624	0	118
63	628	0	118
63	747	0	119
63	1180	0	123
63	1298	0	125
63	1306	0	125
63	1334	0	125
63	1528	0	125
63	1552	0	126
63	1700	0	127
63	1858	0	127
63	1910	0	127
63	1926	0	127
63	2090	0	132
63	3488	0	142
63	3496	0	142
63	4188	0	142
63	4196	0	142
63	4512	0	142
63	4548	0	143
63	5432	0	143
63	6220	0	144
63	6372	0	144
63	6412	0	144
64	108	0	65
64	345	0	103
64	406	0	112
64	608	0	118
64	621	0	118
64	626	0	118
64	1114	0	123
64	1214	0	124
64	1294	0	125
64	1308	0	125
64	1322	0	125
64	1582	0	126
64	1702	0	127
64	1888	0	127
64	1892	0	127
64	1912	0	127
64	2094	0	132
64	2552	0	142
64	2784	0	142
64	2794	0	142
64	3576	0	142
64	4116	0	142
64	4176	0	142
64	4600	0	143
64	4612	0	143
64	5500	0	143
64	6192	0	144
64	6256	0	144
65	109	0	66
65	616	0	118
65	625	0	118
65	686	0	119
65	731	0	119
65	733	0	119
65	735	0	119
65	739	0	119
65	933	0	122
65	960	0	122
65	1106	0	123
65	1296	0	125
65	1316	0	125
65	1328	0	125
65	1708	0	127
65	1722	0	127
65	2106	0	133
65	2788	0	142
65	3412	0	142
65	3472	0	142
65	4108	0	142
65	4132	0	142
65	4148	0	142
65	4588	0	143
65	4628	0	143
65	5416	0	143
65	5504	0	143
65	6188	0	144
66	110	0	67
66	222	0	94
66	339	0	101
66	344	0	103
66	491	0	118
66	517	0	118
66	743	0	119
66	1168	0	123
66	1282	0	124
66	1568	0	126
66	1732	0	127
66	1736	0	127
66	2044	0	127
66	3532	0	142
66	4100	0	142
66	4112	0	142
66	4580	0	143
66	5040	0	143
66	5408	0	143
66	5424	0	143
66	6288	0	144
67	111	0	68
67	115	0	70
67	157	0	79
67	350	0	105
67	488	0	118
67	494	0	118
67	753	0	119
67	1124	0	123
67	1204	0	124
67	1274	0	124
67	1280	0	124
67	1554	0	126
67	1834	0	127
67	1866	0	127
67	1918	0	127
67	2018	0	127
67	2558	0	142
67	2836	0	142
67	3592	0	142
67	4564	0	143
67	4896	0	143
67	5016	0	143
67	5024	0	143
67	6336	0	144
67	6376	0	144
67	6408	0	144
68	112	0	69
68	114	0	70
68	487	0	118
68	754	0	119
68	1534	0	125
68	1538	0	126
68	6384	0	144
69	113	0	70
70	120	0	71
70	306	0	100
70	384	0	108
70	394	0	109
70	864	0	122
70	979	0	122
70	1466	0	125
70	1792	0	127
70	2198	0	134
70	2226	0	134
70	2436	0	134
70	2448	0	134
70	2578	0	142
70	2598	0	142
70	2900	0	142
70	2958	0	142
70	2962	0	142
70	3244	0	142
70	4416	0	142
70	4440	0	142
70	5232	0	143
70	5836	0	143
70	6036	0	143
71	121	0	72
71	359	0	106
71	566	0	118
71	595	0	118
71	650	0	118
71	3716	0	142
71	3784	0	142
71	6580	0	144
72	124	0	73
72	196	0	91
72	279	0	98
72	590	0	118
72	649	0	118
72	664	0	119
72	722	0	119
72	823	0	122
72	834	0	122
72	920	0	122
72	975	0	122
72	981	0	122
72	1766	0	127
72	1972	0	127
72	2248	0	134
72	2278	0	134
72	2678	0	142
72	2744	0	142
72	3016	0	142
72	3668	0	142
72	3720	0	142
72	4672	0	143
72	4936	0	143
72	5256	0	143
72	5576	0	143
72	5768	0	143
72	5784	0	143
72	6076	0	143
72	6536	0	144
73	125	0	74
73	133	0	77
73	255	0	97
73	310	0	100
73	418	0	113
73	467	0	116
73	547	0	118
73	550	0	118
73	578	0	118
73	872	0	122
73	913	0	122
73	1052	0	123
73	1082	0	123
73	1232	0	124
73	1686	0	127
73	1768	0	127
73	2114	0	134
73	2200	0	134
73	2414	0	134
73	2510	0	134
73	2568	0	142
73	2624	0	142
73	2682	0	142
73	2942	0	142
73	3224	0	142
73	3296	0	142
73	3972	0	142
73	4272	0	142
73	4304	0	142
73	4836	0	143
73	5144	0	143
73	5264	0	143
73	5312	0	143
73	5628	0	143
73	5640	0	143
73	5748	0	143
73	5840	0	143
73	6496	0	144
74	126	0	75
74	332	0	101
74	334	0	101
74	450	0	115
74	466	0	116
74	499	0	118
74	571	0	118
74	662	0	119
74	716	0	119
74	789	0	121
74	813	0	121
74	966	0	122
74	1020	0	122
74	1032	0	122
74	1074	0	123
74	1362	0	125
74	1392	0	125
74	1402	0	125
74	1418	0	125
74	1812	0	127
74	1818	0	127
74	1946	0	127
74	2130	0	134
74	2252	0	134
74	2260	0	134
74	2428	0	134
74	2484	0	134
74	2594	0	142
74	2702	0	142
74	3316	0	142
74	3372	0	142
74	4212	0	142
74	4268	0	142
74	4448	0	142
74	5080	0	143
74	5328	0	143
74	5536	0	143
74	5752	0	143
74	5956	0	143
74	6044	0	143
75	130	0	76
75	281	0	98
75	475	0	116
75	697	0	119
75	812	0	121
75	884	0	122
75	892	0	122
75	908	0	122
75	956	0	122
75	1486	0	125
75	1638	0	127
75	1656	0	127
75	1772	0	127
75	2320	0	134
75	2402	0	134
75	2538	0	136
75	2564	0	142
75	2862	0	142
75	3452	0	142
75	3724	0	142
75	3996	0	142
75	4276	0	142
75	4324	0	142
75	4984	0	143
75	5756	0	143
75	5988	0	143
75	6116	0	143
75	6556	0	144
76	131	0	77
76	200	0	91
76	239	0	97
76	314	0	100
76	329	0	100
76	444	0	115
76	539	0	118
76	709	0	119
76	717	0	119
76	782	0	119
76	808	0	121
76	858	0	122
76	883	0	122
76	943	0	122
76	1004	0	122
76	1024	0	122
76	1028	0	122
76	1036	0	122
76	1066	0	123
76	1492	0	125
76	1808	0	127
76	2006	0	127
76	2210	0	134
76	2216	0	134
76	2264	0	134
76	2322	0	134
76	2336	0	134
76	2738	0	142
76	2858	0	142
76	3132	0	142
76	3732	0	142
76	4092	0	142
76	4840	0	143
76	4852	0	143
76	5320	0	143
76	5760	0	143
76	5812	0	143
76	6144	0	143
76	6516	0	144
77	144	0	78
77	206	0	92
77	521	0	118
77	542	0	118
77	700	0	119
77	726	0	119
77	792	0	121
77	809	0	121
77	845	0	122
77	901	0	122
77	909	0	122
77	917	0	122
77	971	0	122
77	1134	0	123
77	1142	0	123
77	1252	0	124
77	1370	0	125
77	1448	0	125
77	1628	0	126
77	1760	0	127
77	1826	0	127
77	2124	0	134
77	2156	0	134
77	2202	0	134
77	2334	0	134
77	2362	0	134
77	2398	0	134
77	2618	0	142
77	2656	0	142
77	3020	0	142
77	3220	0	142
77	3324	0	142
77	3992	0	142
77	4020	0	142
77	5520	0	143
77	5884	0	143
78	145	0	79
78	185	0	90
78	199	0	91
78	249	0	97
78	296	0	99
78	447	0	115
78	555	0	118
78	811	0	121
78	946	0	122
78	999	0	122
78	1268	0	124
78	1374	0	125
78	1806	0	127
78	2126	0	134
78	2274	0	134
78	2520	0	134
78	2672	0	142
78	2888	0	142
78	3040	0	142
78	3116	0	142
78	3204	0	142
78	3348	0	142
78	3800	0	142
78	4064	0	142
78	4940	0	143
78	5056	0	143
78	5092	0	143
78	5660	0	143
78	6124	0	143
78	6592	0	144
79	159	0	80
79	352	0	105
79	485	0	118
79	493	0	118
79	633	0	118
79	685	0	119
79	744	0	119
79	939	0	122
79	1284	0	125
79	1716	0	127
79	2016	0	127
79	2020	0	127
79	2030	0	127
79	2166	0	134
79	3460	0	142
79	3528	0	142
79	3568	0	142
79	3588	0	142
79	3764	0	142
79	4504	0	142
79	5380	0	143
79	6304	0	144
79	6316	0	144
79	6432	0	144
80	160	0	81
80	221	0	94
80	401	0	109
80	510	0	118
80	630	0	118
80	737	0	119
80	938	0	122
80	1278	0	124
80	1300	0	125
80	1526	0	125
80	1558	0	126
80	2058	0	127
80	3512	0	142
80	3524	0	142
80	4200	0	142
80	4576	0	143
80	5344	0	143
80	5388	0	143
80	5436	0	143
80	5488	0	143
80	6400	0	144
81	161	0	82
81	226	0	95
81	619	0	118
81	622	0	118
81	689	0	119
81	730	0	119
81	732	0	119
81	740	0	119
81	936	0	122
81	1326	0	125
81	1578	0	126
81	1718	0	127
81	1844	0	127
81	1878	0	127
81	1932	0	127
81	1940	0	127
81	2034	0	127
81	2072	0	127
81	2078	0	129
81	4160	0	142
81	4520	0	142
81	4528	0	143
81	4544	0	143
81	4552	0	143
81	4608	0	143
81	6204	0	144
81	6232	0	144
82	162	0	83
82	338	0	101
82	402	0	109
82	495	0	118
82	629	0	118
82	729	0	119
82	1096	0	123
82	1196	0	124
82	1206	0	124
82	1286	0	125
82	1318	0	125
82	1548	0	126
82	1714	0	127
82	1728	0	127
82	1838	0	127
82	1880	0	127
82	1890	0	127
82	2066	0	127
82	2170	0	134
82	2786	0	142
82	2790	0	142
82	2804	0	142
82	3536	0	142
82	4120	0	142
82	4128	0	142
82	4152	0	142
82	4168	0	142
82	4540	0	143
82	5364	0	143
82	5376	0	143
82	6184	0	144
82	6208	0	144
82	6248	0	144
82	6272	0	144
82	6340	0	144
82	6360	0	144
83	163	0	84
83	606	0	118
83	1210	0	124
83	1320	0	125
83	1898	0	127
83	2104	0	132
83	2554	0	142
83	3476	0	142
83	3548	0	142
83	4164	0	142
83	4592	0	143
83	5368	0	143
84	164	0	85
84	602	0	118
84	609	0	118
84	1112	0	123
84	1584	0	126
84	1876	0	127
84	2036	0	127
84	2080	0	130
84	2092	0	132
84	2096	0	132
84	2100	0	132
84	4604	0	143
85	166	0	86
85	341	0	102
85	343	0	103
85	409	0	113
85	728	0	119
85	929	0	122
85	931	0	122
85	934	0	122
85	959	0	122
85	961	0	122
85	1104	0	123
85	1942	0	127
85	2832	0	142
85	3584	0	142
85	3760	0	142
85	4184	0	142
86	170	0	87
86	234	0	96
86	374	0	108
86	397	0	109
86	410	0	113
86	465	0	116
86	906	0	122
86	940	0	122
86	1022	0	122
86	1128	0	123
86	1242	0	124
86	1272	0	124
86	1490	0	125
86	1562	0	126
86	1944	0	127
86	2014	0	127
86	2244	0	134
86	2514	0	134
86	2616	0	142
86	2834	0	142
86	2886	0	142
86	3096	0	142
86	3212	0	142
86	3344	0	142
86	4096	0	142
86	4880	0	143
86	4920	0	143
86	5012	0	143
86	5084	0	143
86	5464	0	143
86	5664	0	143
86	5852	0	143
86	5928	0	143
86	5976	0	143
86	6436	0	144
87	174	0	88
87	300	0	99
87	428	0	115
87	551	0	118
87	572	0	118
87	672	0	119
87	970	0	122
87	989	0	122
87	1410	0	125
87	2008	0	127
87	2122	0	134
87	2364	0	134
87	2480	0	134
87	2842	0	142
87	2996	0	142
87	3276	0	142
87	3328	0	142
87	3940	0	142
87	3968	0	142
87	4384	0	142
87	4460	0	142
87	4948	0	143
87	5204	0	143
87	6568	0	144
88	179	0	89
88	457	0	116
88	994	0	122
88	2476	0	134
88	2984	0	142
88	2988	0	142
88	3184	0	142
88	3848	0	142
88	3892	0	142
88	5152	0	143
88	5200	0	143
89	181	0	90
89	423	0	113
89	433	0	115
89	454	0	115
89	969	0	122
89	1978	0	127
89	2730	0	142
89	5160	0	143
89	5216	0	143
89	5796	0	143
90	186	0	91
90	237	0	97
90	282	0	98
90	325	0	100
90	446	0	115
90	498	0	118
90	556	0	118
90	698	0	119
90	771	0	119
90	831	0	122
90	1238	0	124
90	1408	0	125
90	1438	0	125
90	1596	0	126
90	1630	0	126
90	1684	0	127
90	2376	0	134
90	2388	0	134
90	2416	0	134
90	2544	0	139
90	2562	0	142
90	2690	0	142
90	2826	0	142
90	4800	0	143
90	4924	0	143
90	5276	0	143
90	5452	0	143
90	5524	0	143
91	201	0	92
91	244	0	97
91	253	0	97
91	292	0	99
91	528	0	118
91	533	0	118
91	592	0	118
91	646	0	118
91	852	0	122
91	894	0	122
91	899	0	122
91	1488	0	125
91	1820	0	127
91	2152	0	134
91	2194	0	134
91	2288	0	134
91	2422	0	134
91	2608	0	142
91	2642	0	142
91	3356	0	142
91	3988	0	142
91	4004	0	142
91	4400	0	142
91	4656	0	143
91	6020	0	143
91	6548	0	144
91	6600	0	144
92	207	0	93
92	233	0	96
92	471	0	116
92	476	0	116
92	569	0	118
92	573	0	118
92	653	0	118
92	705	0	119
92	766	0	119
92	860	0	122
92	982	0	122
92	1244	0	124
92	1652	0	127
92	2208	0	134
92	2294	0	134
92	2378	0	134
92	2420	0	134
92	2606	0	142
92	2848	0	142
92	3060	0	142
92	3380	0	142
92	3804	0	142
92	4068	0	142
92	4352	0	142
93	220	0	94
93	337	0	101
93	349	0	105
93	509	0	118
93	512	0	118
93	755	0	119
93	1276	0	124
93	1542	0	126
93	1836	0	127
93	1868	0	127
93	1916	0	127
93	1936	0	127
93	2062	0	127
93	3744	0	142
93	4124	0	142
93	4484	0	142
93	5032	0	143
93	5340	0	143
93	6176	0	144
93	6332	0	144
93	6356	0	144
93	6396	0	144
94	225	0	95
94	230	0	96
94	336	0	101
94	382	0	108
94	613	0	118
94	1572	0	126
94	1906	0	127
94	2050	0	127
94	2064	0	127
94	2168	0	134
94	2172	0	134
94	2884	0	142
94	3464	0	142
94	3500	0	142
94	3756	0	142
94	4192	0	142
94	4560	0	143
94	5036	0	143
94	6392	0	144
95	227	0	96
95	741	0	119
95	932	0	122
95	935	0	122
95	1314	0	125
95	1720	0	127
95	1734	0	127
95	2830	0	142
95	3564	0	142
95	4156	0	142
95	4584	0	143
95	5420	0	143
95	6312	0	144
96	236	0	97
96	238	0	97
96	298	0	99
96	308	0	100
96	477	0	116
96	505	0	118
96	577	0	118
96	654	0	118
96	798	0	121
96	810	0	121
96	945	0	122
96	1016	0	122
96	1046	0	123
96	1406	0	125
96	1420	0	125
96	1442	0	125
96	1508	0	125
96	1642	0	127
96	1668	0	127
96	1756	0	127
96	2112	0	134
96	2142	0	134
96	2214	0	134
96	2276	0	134
96	2290	0	134
96	2298	0	134
96	2318	0	134
96	2340	0	134
96	2716	0	142
96	2864	0	142
96	3964	0	142
96	4688	0	143
96	4804	0	143
96	5168	0	143
96	5300	0	143
96	5596	0	143
96	5776	0	143
96	5808	0	143
96	5816	0	143
96	6444	0	144
96	6528	0	144
97	267	0	98
97	2434	0	134
97	3436	0	142
98	284	0	99
98	323	0	100
98	553	0	118
98	675	0	119
98	724	0	119
98	818	0	121
98	820	0	122
98	968	0	122
98	1814	0	127
98	2368	0	134
98	2876	0	142
98	3028	0	142
98	3148	0	142
98	3192	0	142
98	3952	0	142
98	3980	0	142
98	4308	0	142
98	4372	0	142
98	4784	0	143
98	6096	0	143
99	301	0	100
99	326	0	100
99	434	0	115
99	530	0	118
99	536	0	118
99	540	0	118
99	783	0	119
99	846	0	122
99	891	0	122
99	893	0	122
99	974	0	122
99	1444	0	125
99	1482	0	125
99	1496	0	125
99	1746	0	127
99	1770	0	127
99	1966	0	127
99	2186	0	134
99	2220	0	134
99	2236	0	134
99	2300	0	134
99	2316	0	134
99	2342	0	134
99	2478	0	134
99	2696	0	142
99	3188	0	142
99	3656	0	142
99	3904	0	142
99	3920	0	142
99	4228	0	142
99	4280	0	142
99	4740	0	143
99	5148	0	143
99	5184	0	143
99	5208	0	143
99	5224	0	143
99	5456	0	143
99	5548	0	143
99	5556	0	143
99	5788	0	143
99	5804	0	143
100	331	0	101
100	432	0	115
100	658	0	119
100	787	0	120
100	997	0	122
100	1404	0	125
100	2118	0	134
100	2472	0	134
100	2978	0	142
100	3176	0	142
100	4244	0	142
100	4252	0	142
100	4284	0	142
100	4776	0	143
100	6488	0	144
101	340	0	102
101	515	0	118
101	746	0	119
101	1102	0	123
101	1108	0	123
101	1186	0	123
101	1212	0	124
101	1312	0	125
101	1330	0	125
101	1704	0	127
101	1710	0	127
101	1842	0	127
101	1882	0	127
101	2084	0	130
101	2548	0	141
101	2800	0	142
101	3540	0	142
101	3580	0	142
101	4136	0	142
101	4524	0	143
101	4532	0	143
101	4596	0	143
101	5412	0	143
101	6264	0	144
102	342	0	103
102	381	0	108
102	492	0	118
102	496	0	118
102	696	0	119
102	907	0	122
102	930	0	122
102	958	0	122
102	1026	0	122
102	1706	0	127
102	2108	0	133
102	2174	0	134
102	2178	0	134
102	2546	0	140
102	2802	0	142
102	2828	0	142
102	2860	0	142
102	4632	0	143
102	5044	0	143
102	5088	0	143
102	6308	0	144
103	347	0	104
103	514	0	118
103	605	0	118
103	738	0	119
103	749	0	119
103	1198	0	124
103	1216	0	124
103	1324	0	125
103	1550	0	126
103	1574	0	126
103	1896	0	127
103	1908	0	127
103	2024	0	127
103	2042	0	127
103	2046	0	127
103	4492	0	142
103	4500	0	142
103	4508	0	142
103	6292	0	144
103	6324	0	144
103	6428	0	144
104	348	0	105
104	354	0	105
104	407	0	112
104	607	0	118
104	615	0	118
104	734	0	119
104	750	0	119
104	937	0	122
104	1116	0	123
104	1194	0	124
104	1580	0	126
104	1590	0	126
104	1724	0	127
104	1848	0	127
104	1894	0	127
104	1924	0	127
104	1930	0	127
104	2556	0	142
104	2774	0	142
104	3552	0	142
104	3752	0	142
104	4572	0	143
104	4620	0	143
104	5004	0	143
104	5428	0	143
104	5496	0	143
104	6276	0	144
104	6424	0	144
105	355	0	106
105	1172	0	123
105	1524	0	125
105	2756	0	142
105	2760	0	142
105	2768	0	142
105	2772	0	142
105	5492	0	143
106	361	0	107
106	388	0	108
106	392	0	109
106	503	0	118
106	583	0	118
106	667	0	119
106	677	0	119
106	680	0	119
106	1154	0	123
106	2196	0	134
106	2644	0	142
107	373	0	108
107	486	0	118
107	490	0	118
107	518	0	118
107	631	0	118
107	896	0	122
107	1126	0	123
107	1566	0	126
107	1592	0	126
107	1726	0	127
107	2056	0	127
107	2810	0	142
107	3424	0	142
107	3468	0	142
107	4624	0	143
107	5000	0	143
107	5360	0	143
107	5980	0	143
107	6212	0	144
107	6328	0	144
107	6404	0	144
108	389	0	109
108	391	0	109
108	597	0	118
108	2880	0	142
108	2898	0	142
108	2946	0	142
108	3432	0	142
108	3780	0	142
108	4408	0	142
108	6168	0	143
109	403	0	110
109	483	0	118
109	610	0	118
109	627	0	118
109	1098	0	123
109	1110	0	123
109	1178	0	123
109	1184	0	123
109	1188	0	123
109	1288	0	125
109	1292	0	125
109	1332	0	125
109	1860	0	127
109	1874	0	127
109	1922	0	127
109	1928	0	127
109	2026	0	127
109	2082	0	130
109	2776	0	142
109	2782	0	142
109	5396	0	143
109	6200	0	144
109	6236	0	144
109	6268	0	144
109	6364	0	144
110	404	0	111
110	603	0	118
110	620	0	118
110	1100	0	123
110	1182	0	123
110	1304	0	125
110	1310	0	125
110	2074	0	127
110	2798	0	142
110	3492	0	142
110	3544	0	142
110	4516	0	142
111	405	0	112
111	1846	0	127
111	2038	0	127
111	2048	0	127
111	3480	0	142
111	4104	0	142
111	4536	0	143
111	4616	0	143
111	6224	0	144
111	6240	0	144
112	408	0	113
112	601	0	118
112	604	0	118
112	623	0	118
112	632	0	118
112	742	0	119
112	745	0	119
112	1122	0	123
112	1208	0	124
112	1290	0	125
112	1302	0	125
112	1576	0	126
112	1900	0	127
112	2028	0	127
112	2032	0	127
112	2070	0	127
112	2102	0	132
112	2550	0	141
112	2792	0	142
112	3560	0	142
112	3768	0	142
112	4140	0	142
112	4172	0	142
112	4180	0	142
112	5372	0	143
112	6216	0	144
112	6252	0	144
112	6260	0	144
113	424	0	114
113	1960	0	127
113	2628	0	142
113	2992	0	142
113	3268	0	142
113	3828	0	142
113	3888	0	142
113	5192	0	143
114	425	0	115
114	441	0	115
114	996	0	122
114	1950	0	127
114	1954	0	127
114	2460	0	134
114	2986	0	142
114	3280	0	142
114	5792	0	143
115	455	0	116
115	4772	0	143
116	481	0	117
116	748	0	119
116	751	0	119
116	1170	0	123
116	1202	0	124
116	1218	0	124
116	1518	0	125
116	1522	0	125
116	1540	0	126
116	1544	0	126
116	1556	0	126
116	1904	0	127
116	2754	0	142
116	5348	0	143
116	6344	0	144
117	482	0	118
117	611	0	118
117	614	0	118
117	1176	0	123
117	1192	0	124
117	1588	0	126
117	1862	0	127
117	1920	0	127
117	2060	0	127
117	2808	0	142
117	4488	0	142
117	4496	0	142
117	4568	0	143
117	5356	0	143
117	5400	0	143
117	6280	0	144
118	657	0	119
118	785	0	119
118	991	0	122
118	2982	0	142
118	3000	0	142
118	3876	0	142
118	3900	0	142
118	4232	0	142
118	5188	0	143
118	5196	0	143
119	786	0	120
119	990	0	122
119	995	0	122
119	2120	0	134
119	2630	0	142
119	2930	0	142
119	2998	0	142
119	3852	0	142
120	788	0	121
120	1964	0	127
120	2262	0	134
120	3916	0	142
121	819	0	122
121	2370	0	134
122	1174	0	123
122	1850	0	127
122	1854	0	127
122	2762	0	142
122	2766	0	142
122	2770	0	142
122	6420	0	144
123	1190	0	124
123	1586	0	126
123	1852	0	127
123	2098	0	132
124	1536	0	126
125	1712	0	127
125	1840	0	127
125	1884	0	127
125	2068	0	127
125	2076	0	128
125	2088	0	132
125	2796	0	142
125	4144	0	142
125	6244	0	144
125	6368	0	144

