file 44398 1756984393                                           
version 3
run General-62-20250904-14:13:13-15301
attr configname General
attr datetime 20250904-14:13:13
attr datetimef 20250904-141313
attr experiment General
attr inifile omnetpp.ini
attr iterationvars ""
attr iterationvarsd ""
attr iterationvarsf ""
attr measurement ""
attr network TaxiNetwork
attr processid 15301
attr repetition 62
attr replication #62
attr resultdir results
attr runnumber 62
attr seedset 62
config network TaxiNetwork
config seed-set 62
config num-rngs 1
config sim-time-limit 10s
config repeat 500
config *.numWalkers 1
config *.enableDuplication true
config *.rc 700
config **.node[0].xCor 2933
config **.node[0].yCor 2747
config **.node[1].xCor 2919
config **.node[1].yCor 2817
config **.node[2].xCor 2910
config **.node[2].yCor 2861
config **.node[3].xCor 2429
config **.node[3].yCor 2851
config **.node[4].xCor 2908
config **.node[4].yCor 2714
config **.node[5].xCor 2606
config **.node[5].yCor 2722
config **.node[6].xCor 2575
config **.node[6].yCor 2753
config **.node[7].xCor 2654
config **.node[7].yCor 2513
config **.node[8].xCor 2773
config **.node[8].yCor 2580
config **.node[9].xCor 3043
config **.node[9].yCor 2780
config **.node[10].xCor 3020
config **.node[10].yCor 2813
config **.node[11].xCor 2599
config **.node[11].yCor 2300
config **.node[12].xCor 2917
config **.node[12].yCor 2698
config **.node[13].xCor 2625
config **.node[13].yCor 2641
config **.node[14].xCor 2604
config **.node[14].yCor 2790
config **.node[15].xCor 2786
config **.node[15].yCor 3082
config **.node[16].xCor 2603
config **.node[16].yCor 2802
config **.node[17].xCor 2637
config **.node[17].yCor 2869
config **.node[18].xCor 2675
config **.node[18].yCor 2955
config **.node[19].xCor 2845
config **.node[19].yCor 2937
config **.node[20].xCor 2860
config **.node[20].yCor 2888
config **.node[21].xCor 2843
config **.node[21].yCor 4158
config **.node[22].xCor 2852
config **.node[22].yCor 4017
config **.node[23].xCor 2892
config **.node[23].yCor 4961
config **.node[24].xCor 2313
config **.node[24].yCor 3993
config **.node[25].xCor 2891
config **.node[25].yCor 4959
config **.node[26].xCor 2370
config **.node[26].yCor 4050
config **.node[27].xCor 2788
config **.node[27].yCor 3958
config **.node[28].xCor 2819
config **.node[28].yCor 4428
config **.node[29].xCor 2790
config **.node[29].yCor 3761
config **.node[30].xCor 2809
config **.node[30].yCor 2908
config **.node[31].xCor 2919
config **.node[31].yCor 3575
config **.node[32].xCor 2946
config **.node[32].yCor 3466
config **.node[33].xCor 2911
config **.node[33].yCor 3453
config **.node[34].xCor 2370
config **.node[34].yCor 3656
config **.node[35].xCor 2438
config **.node[35].yCor 3738
config **.node[36].xCor 2737
config **.node[36].yCor 3570
config **.node[37].xCor 2921
config **.node[37].yCor 3698
config **.node[38].xCor 2907
config **.node[38].yCor 5197
config **.node[39].xCor 2860
config **.node[39].yCor 3852
config **.node[40].xCor 2927
config **.node[40].yCor 3684
config **.node[41].xCor 3023
config **.node[41].yCor 5313
config **.node[42].xCor 3220
config **.node[42].yCor 5811
config **.node[43].xCor 3432
config **.node[43].yCor 5715
config **.node[44].xCor 2754
config **.node[44].yCor 2463
config **.node[45].xCor 2646
config **.node[45].yCor 2673
config **.node[46].xCor 3051
config **.node[46].yCor 2792
config **.node[47].xCor 1666
config **.node[47].yCor 3697
config **.node[48].xCor 1662
config **.node[48].yCor 3694
config **.node[49].xCor 1664
config **.node[49].yCor 3667
config **.node[50].xCor 1660
config **.node[50].yCor 3664
config **.node[51].xCor 1710
config **.node[51].yCor 3573
config **.node[52].xCor 2082
config **.node[52].yCor 2650
config **.node[53].xCor 2086
config **.node[53].yCor 2657
config **.node[54].xCor 2257
config **.node[54].yCor 3232
config **.node[55].xCor 2258
config **.node[55].yCor 3225
config **.node[56].xCor 1926
config **.node[56].yCor 2570
config **.node[57].xCor 1926
config **.node[57].yCor 2576
config **.node[58].xCor 2104
config **.node[58].yCor 1758
config **.node[59].xCor 1957
config **.node[59].yCor 1826
config **.node[60].xCor 3473
config **.node[60].yCor 1523
config **.node[61].xCor 3335
config **.node[61].yCor 1726
config **.node[62].xCor 3478
config **.node[62].yCor 1517
config **.node[63].xCor 3386
config **.node[63].yCor 2119
config **.node[64].xCor 3474
config **.node[64].yCor 1762
config **.node[65].xCor 3797
config **.node[65].yCor 2099
config **.node[66].xCor 3642
config **.node[66].yCor 2136
config **.node[67].xCor 3481
config **.node[67].yCor 2334
config **.node[68].xCor 3088
config **.node[68].yCor 1505
config **.node[69].xCor 3037
config **.node[69].yCor 1693
config **.node[70].xCor 3026
config **.node[70].yCor 1700
config **.node[71].xCor 3019
config **.node[71].yCor 669
config **.node[72].xCor 3513
config **.node[72].yCor 1358
config **.node[73].xCor 3545
config **.node[73].yCor 1230
config **.node[74].xCor 4228
config **.node[74].yCor 4220
config **.node[75].xCor 3379
config **.node[75].yCor 1207
config **.node[76].xCor 3596
config **.node[76].yCor 963
config **.node[77].xCor 3637
config **.node[77].yCor 1188
config **.node[78].xCor 3759
config **.node[78].yCor 1030
config **.node[79].xCor 2918
config **.node[79].yCor 1455
config **.node[80].xCor 2711
config **.node[80].yCor 1297
config **.node[81].xCor 439
config **.node[81].yCor 1623
config **.node[82].xCor 2857
config **.node[82].yCor 3581
config **.node[83].xCor 2858
config **.node[83].yCor 3584
config **.node[84].xCor 2999
config **.node[84].yCor 2636
config **.node[85].xCor 2905
config **.node[85].yCor 2778
config **.node[86].xCor 2653
config **.node[86].yCor 2845
config **.node[87].xCor 2864
config **.node[87].yCor 2836
config **.node[88].xCor 2426
config **.node[88].yCor 2892
config **.node[89].xCor 2964
config **.node[89].yCor 2804
config **.node[90].xCor 2586
config **.node[90].yCor 3135
config **.node[91].xCor 2864
config **.node[91].yCor 2980
config **.node[92].xCor 2527
config **.node[92].yCor 3219
config **.node[93].xCor 2863
config **.node[93].yCor 3142
config **.node[94].xCor 2485
config **.node[94].yCor 3269
config **.node[95].xCor 2653
config **.node[95].yCor 1065
config **.node[96].xCor 4062
config **.node[96].yCor 400
config **.node[97].xCor 5762
config **.node[97].yCor 3023
config **.node[98].xCor 1414
config **.node[98].yCor 3461
config **.node[99].xCor 2911
config **.node[99].yCor 1737
config **.node[100].xCor 2595
config **.node[100].yCor 2299
config **.node[101].xCor 2702
config **.node[101].yCor 3419
config **.node[102].xCor 2813
config **.node[102].yCor 3307
config **.node[103].xCor 2638
config **.node[103].yCor 2258
config **.node[104].xCor 2590
config **.node[104].yCor 3125
config **.node[105].xCor 1856
config **.node[105].yCor 2990
config **.node[106].xCor 1894
config **.node[106].yCor 2239
config **.node[107].xCor 383
config **.node[107].yCor 1251
config **.node[108].xCor 3447
config **.node[108].yCor 5489
config **.node[109].xCor 3450
config **.node[109].yCor 5697
config **.node[110].xCor 2719
config **.node[110].yCor 1920
config **.node[111].xCor 2085
config **.node[111].yCor 2389
config **.node[112].xCor 1910
config **.node[112].yCor 2548
config **.node[113].xCor 2069
config **.node[113].yCor 2050
config **.node[114].xCor 2184
config **.node[114].yCor 2209
config **.node[115].xCor 2278
config **.node[115].yCor 2390
config **.node[116].xCor 2249
config **.node[116].yCor 2299
config **.node[117].xCor 2356
config **.node[117].yCor 2303
config **.node[118].xCor 2192
config **.node[118].yCor 2475
config **.node[119].xCor 1720
config **.node[119].yCor 2911
config **.node[120].xCor 2400
config **.node[120].yCor 2887
config **.node[121].xCor 3344
config **.node[121].yCor 1890
config **.node[122].xCor 3136
config **.node[122].yCor 2418
config **.node[123].xCor 3243
config **.node[123].yCor 2525
config **.node[124].xCor 2396
config **.node[124].yCor 1267
config **.node[125].xCor 467
config **.node[125].yCor 1875
config **.node[126].xCor 3506
config **.node[126].yCor 1221
config **.node[127].xCor 1034
config **.node[127].yCor 1474
config **.node[128].xCor 2908
config **.node[128].yCor 1784
config **.node[129].xCor 2876
config **.node[129].yCor 1761
config **.node[130].xCor 2849
config **.node[130].yCor 1795
config **.node[131].xCor 3029
config **.node[131].yCor 1859
config **.node[132].xCor 2924
config **.node[132].yCor 1848
config **.node[133].xCor 3493
config **.node[133].yCor 1559
config **.node[134].xCor 2760
config **.node[134].yCor 1761
config **.node[135].xCor 1644
config **.node[135].yCor 3755
config **.node[136].xCor 1463
config **.node[136].yCor 3432
config **.node[137].xCor 2595
config **.node[137].yCor 2849
config **.node[138].xCor 2581
config **.node[138].yCor 2867
config **.node[139].xCor 2524
config **.node[139].yCor 2911
config **.node[140].xCor 2570
config **.node[140].yCor 2924
config **.node[141].xCor 2676
config **.node[141].yCor 2890
config **.node[142].xCor 2666
config **.node[142].yCor 2876
config **.node[143].xCor 3735
config **.node[143].yCor 1726
config **.node[144].xCor 1637
config **.node[144].yCor 3438

vector 0 TaxiNetwork.node[19] visitedPerTimestep ETV
vector 1 TaxiNetwork.node[36] visitedPerTimestep ETV
vector 2 TaxiNetwork.node[39] visitedPerTimestep ETV
vector 3 TaxiNetwork.node[33] visitedPerTimestep ETV
vector 4 TaxiNetwork.node[29] visitedPerTimestep ETV
vector 5 TaxiNetwork.node[94] visitedPerTimestep ETV
vector 6 TaxiNetwork.node[31] visitedPerTimestep ETV
vector 7 TaxiNetwork.node[21] visitedPerTimestep ETV
vector 8 TaxiNetwork.node[82] visitedPerTimestep ETV
vector 9 TaxiNetwork.node[104] visitedPerTimestep ETV
vector 10 TaxiNetwork.node[52] visitedPerTimestep ETV
vector 11 TaxiNetwork.node[114] visitedPerTimestep ETV
vector 12 TaxiNetwork.node[141] visitedPerTimestep ETV
vector 13 TaxiNetwork.node[120] visitedPerTimestep ETV
vector 14 TaxiNetwork.node[118] visitedPerTimestep ETV
vector 15 TaxiNetwork.node[5] visitedPerTimestep ETV
vector 16 TaxiNetwork.node[0] visitedPerTimestep ETV
vector 17 TaxiNetwork.node[11] visitedPerTimestep ETV
vector 18 TaxiNetwork.node[30] visitedPerTimestep ETV
vector 19 TaxiNetwork.node[55] visitedPerTimestep ETV
vector 20 TaxiNetwork.node[144] visitedPerTimestep ETV
vector 21 TaxiNetwork.node[105] visitedPerTimestep ETV
vector 22 TaxiNetwork.node[119] visitedPerTimestep ETV
vector 23 TaxiNetwork.node[51] visitedPerTimestep ETV
vector 24 TaxiNetwork.node[47] visitedPerTimestep ETV
vector 25 TaxiNetwork.node[98] visitedPerTimestep ETV
vector 26 TaxiNetwork.node[48] visitedPerTimestep ETV
vector 27 TaxiNetwork.node[50] visitedPerTimestep ETV
vector 28 TaxiNetwork.node[49] visitedPerTimestep ETV
vector 29 TaxiNetwork.node[57] visitedPerTimestep ETV
vector 30 TaxiNetwork.node[16] visitedPerTimestep ETV
vector 31 TaxiNetwork.node[138] visitedPerTimestep ETV
vector 32 TaxiNetwork.node[53] visitedPerTimestep ETV
vector 33 TaxiNetwork.node[111] visitedPerTimestep ETV
vector 34 TaxiNetwork.node[45] visitedPerTimestep ETV
vector 35 TaxiNetwork.node[139] visitedPerTimestep ETV
vector 36 TaxiNetwork.node[84] visitedPerTimestep ETV
vector 37 TaxiNetwork.node[89] visitedPerTimestep ETV
vector 38 TaxiNetwork.node[91] visitedPerTimestep ETV
vector 39 TaxiNetwork.node[6] visitedPerTimestep ETV
vector 40 TaxiNetwork.node[8] visitedPerTimestep ETV
vector 41 TaxiNetwork.node[46] visitedPerTimestep ETV
vector 42 TaxiNetwork.node[130] visitedPerTimestep ETV
vector 43 TaxiNetwork.node[129] visitedPerTimestep ETV
vector 44 TaxiNetwork.node[100] visitedPerTimestep ETV
vector 45 TaxiNetwork.node[137] visitedPerTimestep ETV
vector 46 TaxiNetwork.node[4] visitedPerTimestep ETV
vector 47 TaxiNetwork.node[9] visitedPerTimestep ETV
vector 48 TaxiNetwork.node[17] visitedPerTimestep ETV
vector 49 TaxiNetwork.node[140] visitedPerTimestep ETV
vector 50 TaxiNetwork.node[20] visitedPerTimestep ETV
vector 51 TaxiNetwork.node[123] visitedPerTimestep ETV
vector 52 TaxiNetwork.node[122] visitedPerTimestep ETV
vector 53 TaxiNetwork.node[2] visitedPerTimestep ETV
vector 54 TaxiNetwork.node[3] visitedPerTimestep ETV
vector 55 TaxiNetwork.node[86] visitedPerTimestep ETV
vector 56 TaxiNetwork.node[88] visitedPerTimestep ETV
vector 57 TaxiNetwork.node[15] visitedPerTimestep ETV
vector 58 TaxiNetwork.node[142] visitedPerTimestep ETV
vector 59 TaxiNetwork.node[10] visitedPerTimestep ETV
vector 60 TaxiNetwork.node[1] visitedPerTimestep ETV
vector 61 TaxiNetwork.node[93] visitedPerTimestep ETV
vector 62 TaxiNetwork.node[32] visitedPerTimestep ETV
vector 63 TaxiNetwork.node[92] visitedPerTimestep ETV
vector 64 TaxiNetwork.node[103] visitedPerTimestep ETV
vector 65 TaxiNetwork.node[12] visitedPerTimestep ETV
vector 66 TaxiNetwork.node[102] visitedPerTimestep ETV
vector 67 TaxiNetwork.node[90] visitedPerTimestep ETV
vector 68 TaxiNetwork.node[83] visitedPerTimestep ETV
vector 69 TaxiNetwork.node[115] visitedPerTimestep ETV
vector 70 TaxiNetwork.node[14] visitedPerTimestep ETV
vector 71 TaxiNetwork.node[85] visitedPerTimestep ETV
vector 72 TaxiNetwork.node[7] visitedPerTimestep ETV
vector 73 TaxiNetwork.node[116] visitedPerTimestep ETV
vector 74 TaxiNetwork.node[54] visitedPerTimestep ETV
vector 75 TaxiNetwork.node[18] visitedPerTimestep ETV
vector 76 TaxiNetwork.node[117] visitedPerTimestep ETV
vector 77 TaxiNetwork.node[44] visitedPerTimestep ETV
vector 78 TaxiNetwork.node[101] visitedPerTimestep ETV
vector 79 TaxiNetwork.node[24] visitedPerTimestep ETV
vector 80 TaxiNetwork.node[110] visitedPerTimestep ETV
vector 81 TaxiNetwork.node[134] visitedPerTimestep ETV
vector 82 TaxiNetwork.node[99] visitedPerTimestep ETV
vector 83 TaxiNetwork.node[131] visitedPerTimestep ETV
vector 84 TaxiNetwork.node[121] visitedPerTimestep ETV
vector 85 TaxiNetwork.node[80] visitedPerTimestep ETV
vector 86 TaxiNetwork.node[95] visitedPerTimestep ETV
vector 87 TaxiNetwork.node[124] visitedPerTimestep ETV
vector 88 TaxiNetwork.node[27] visitedPerTimestep ETV
vector 89 TaxiNetwork.node[37] visitedPerTimestep ETV
vector 90 TaxiNetwork.node[87] visitedPerTimestep ETV
vector 91 TaxiNetwork.node[13] visitedPerTimestep ETV
vector 92 TaxiNetwork.node[112] visitedPerTimestep ETV
vector 93 TaxiNetwork.node[22] visitedPerTimestep ETV
vector 94 TaxiNetwork.node[35] visitedPerTimestep ETV
vector 95 TaxiNetwork.node[68] visitedPerTimestep ETV
vector 96 TaxiNetwork.node[60] visitedPerTimestep ETV
vector 97 TaxiNetwork.node[64] visitedPerTimestep ETV
vector 98 TaxiNetwork.node[132] visitedPerTimestep ETV
vector 99 TaxiNetwork.node[40] visitedPerTimestep ETV
vector 100 TaxiNetwork.node[67] visitedPerTimestep ETV
vector 101 TaxiNetwork.node[65] visitedPerTimestep ETV
vector 102 TaxiNetwork.node[63] visitedPerTimestep ETV
vector 103 TaxiNetwork.node[73] visitedPerTimestep ETV
vector 104 TaxiNetwork.node[78] visitedPerTimestep ETV
vector 105 TaxiNetwork.node[72] visitedPerTimestep ETV
vector 106 TaxiNetwork.node[76] visitedPerTimestep ETV
vector 107 TaxiNetwork.node[77] visitedPerTimestep ETV
vector 108 TaxiNetwork.node[143] visitedPerTimestep ETV
vector 109 TaxiNetwork.node[126] visitedPerTimestep ETV
vector 110 TaxiNetwork.node[79] visitedPerTimestep ETV
vector 111 TaxiNetwork.node[58] visitedPerTimestep ETV
vector 112 TaxiNetwork.node[113] visitedPerTimestep ETV
vector 113 TaxiNetwork.node[34] visitedPerTimestep ETV
vector 114 TaxiNetwork.node[106] visitedPerTimestep ETV
vector 115 TaxiNetwork.node[61] visitedPerTimestep ETV
vector 116 TaxiNetwork.node[70] visitedPerTimestep ETV
vector 117 TaxiNetwork.node[133] visitedPerTimestep ETV
vector 118 TaxiNetwork.node[66] visitedPerTimestep ETV
vector 119 TaxiNetwork.node[128] visitedPerTimestep ETV
vector 120 TaxiNetwork.node[75] visitedPerTimestep ETV
vector 121 TaxiNetwork.node[62] visitedPerTimestep ETV
vector 122 TaxiNetwork.node[127] visitedPerTimestep ETV
vector 123 TaxiNetwork.node[81] visitedPerTimestep ETV
vector 124 TaxiNetwork.node[107] visitedPerTimestep ETV
vector 125 TaxiNetwork.node[125] visitedPerTimestep ETV
vector 126 TaxiNetwork.node[26] visitedPerTimestep ETV
vector 127 TaxiNetwork.node[56] visitedPerTimestep ETV
vector 128 TaxiNetwork.node[69] visitedPerTimestep ETV
vector 129 TaxiNetwork.node[96] visitedPerTimestep ETV
vector 130 TaxiNetwork.node[28] visitedPerTimestep ETV
vector 131 TaxiNetwork.node[23] visitedPerTimestep ETV
vector 132 TaxiNetwork.node[38] visitedPerTimestep ETV
vector 133 TaxiNetwork.node[108] visitedPerTimestep ETV
vector 134 TaxiNetwork.node[109] visitedPerTimestep ETV
vector 135 TaxiNetwork.node[41] visitedPerTimestep ETV
vector 136 TaxiNetwork.node[74] visitedPerTimestep ETV
vector 137 TaxiNetwork.node[136] visitedPerTimestep ETV
vector 138 TaxiNetwork.node[135] visitedPerTimestep ETV
vector 139 TaxiNetwork.node[59] visitedPerTimestep ETV
vector 140 TaxiNetwork.node[97] visitedPerTimestep ETV
vector 141 TaxiNetwork.node[25] visitedPerTimestep ETV
0	16804 396 1 3328 0 0 33 1 144 3797 472235
1	17200 188 2 3192 0 0 16 2 143 1679 204447
2	17388 98 3 3248 0 0 8 3 144 985 137981
3	17486 372 4 2974 0 0 31 4 142 3546 448460
4	17858 216 5 3224 0 0 18 5 144 2131 273489
5	18074 306 6 2868 0 0 26 6 142 2819 336645
6	18380 245 7 3020 0 0 20 7 142 2402 311668
7	18625 131 8 3048 0 0 11 8 142 1260 161136
8	18756 272 9 3252 0 0 22 9 144 2710 363854
9	19028 409 11 3256 0 0 33 10 144 4015 523243
10	19437 276 12 2422 0 0 21 11 142 2364 302762
11	19713 130 13 2884 0 0 10 12 142 1104 143236
12	19843 382 15 3028 0 0 29 13 142 3378 428214
13	20225 366 16 3012 0 0 28 14 142 3186 391694
14	20591 264 17 2700 0 0 20 15 142 2367 300293
15	20855 242 18 3260 0 0 19 16 144 2043 241501
16	21097 246 19 3304 0 0 19 17 144 2117 265199
17	21343 410 20 3320 0 0 31 18 144 3705 475453
18	21753 262 21 3120 0 0 20 19 143 2282 286486
19	22015 252 23 3156 0 0 19 20 143 2309 302035
20	22267 25 24 1800 0 0 2 21 141 162 20322
21	22292 116 25 2856 0 0 9 22 142 932 116590
22	22408 78 26 2514 0 0 6 23 142 645 80377
23	22486 105 27 3152 0 0 8 24 143 888 117774
24	22591 25 28 1634 0 0 2 25 140 165 20225
25	22616 53 29 1804 0 0 4 26 141 448 60038
26	22669 50 30 1802 0 0 4 27 141 337 41275
27	22719 25 31 1626 0 0 2 28 140 168 20384
28	22744 39 33 1630 0 0 3 29 140 309 40041
29	22783 187 36 2702 0 0 14 30 142 1691 218085
30	22970 290 39 2956 0 0 22 31 142 2613 332431
31	23260 402 40 3280 0 0 30 32 144 3744 489964
32	23662 278 41 3276 0 0 21 33 144 2527 320881
33	23940 93 43 3264 0 0 7 34 144 815 105823
34	24033 340 44 2790 0 0 26 35 142 2984 368022
35	24373 348 45 3336 0 0 26 36 145 3271 427947
36	24721 303 46 3288 0 0 23 37 144 2751 351421
37	25024 267 48 3176 0 0 20 38 143 2468 318162
38	25291 424 49 3008 0 0 32 39 142 3830 483316
39	25715 412 51 3144 0 0 31 40 143 3799 484459
40	26127 385 52 3300 0 0 29 41 144 3529 448525
41	26512 372 53 2808 0 0 28 42 142 3397 432561
42	26884 103 56 2844 0 0 8 43 142 879 105305
43	26987 166 57 2846 0 0 13 44 142 1494 180052
44	27153 333 58 2938 0 0 25 45 142 3068 392702
45	27486 334 59 3000 0 0 25 46 142 3121 404955
46	27820 294 60 2784 0 0 23 47 142 2468 289472
47	28114 264 61 2988 0 0 20 48 142 2366 299254
48	28378 597 62 3332 0 0 45 49 144 5359 676237
49	28975 372 65 2966 0 0 29 50 142 3199 376175
50	29347 362 66 2814 0 0 28 51 142 3039 358793
51	29709 195 68 3308 0 0 15 52 144 1739 214125
52	29904 172 75 2914 0 0 13 53 142 1563 196221
53	30076 353 76 2962 0 0 27 54 142 3111 380579
54	30429 446 82 2990 0 0 34 55 142 4111 515039
55	30875 313 86 2792 0 0 24 56 142 2874 357280
56	31188 337 87 2704 0 0 26 57 142 3000 367456
57	31525 401 88 3024 0 0 30 58 142 3826 499700
58	31926 467 89 3160 0 0 35 59 143 4278 548558
59	32393 265 94 2902 0 0 20 60 142 2446 311756
60	32658 338 97 3116 0 0 26 61 143 3035 371485
61	32996 384 100 3228 0 0 29 62 144 3570 454562
62	33380 290 103 2744 0 0 22 63 142 2668 334630
63	33670 271 107 3132 0 0 20 64 143 2586 342044
64	33941 250 111 2888 0 0 19 65 142 2244 279984
65	34191 351 114 3296 0 0 27 66 144 3078 365392
66	34542 485 118 3204 0 0 36 67 143 4554 593252
67	35027 316 119 3172 0 0 23 68 143 3046 410132
68	35343 216 120 3244 0 0 16 69 144 2056 271794
69	35559 159 123 2622 0 0 12 70 142 1469 186287
70	35718 322 126 3324 0 0 24 71 144 3026 393272
71	36040 385 134 3316 0 0 29 72 144 3590 458288
72	36425 357 138 3292 0 0 27 73 144 3259 410121
73	36782 186 139 3272 0 0 14 74 144 1733 222103
74	36968 324 145 2724 0 0 24 75 142 3033 394971
75	37292 331 150 2874 0 0 25 76 142 3067 389629
76	37623 256 161 2994 0 0 19 77 142 2432 317240
77	37879 257 167 2758 0 0 20 78 142 2257 262915
78	38136 404 170 3112 0 0 30 79 143 3808 498794
79	38540 110 211 3220 0 0 8 80 144 1068 145886
80	38650 173 226 2912 0 0 13 81 142 1634 210844
81	38823 102 274 2582 0 0 8 82 142 911 106615
82	38925 79 275 2524 0 0 6 83 142 741 93863
83	39004 185 276 2838 0 0 14 84 142 1738 221188
84	39189 66 277 2840 0 0 5 85 142 616 77832
85	39255 38 279 827 0 0 3 86 128 336 38664
86	39293 12 280 280 0 0 1 87 87 87 7569
87	39305 39 281 1922 0 0 3 88 141 357 44009
88	39344 95 296 2982 0 0 7 89 142 926 124842
89	39439 217 304 3184 0 0 16 90 143 2105 280531
90	39656 242 313 3128 0 0 18 91 143 2305 300679
91	39898 351 319 3312 0 0 26 92 144 3399 449147
92	40249 80 326 1934 0 0 6 93 141 735 91793
93	40329 137 352 3096 0 0 10 94 143 1297 171141
94	40466 247 354 2186 0 0 18 95 141 2395 321155
95	40713 91 422 1122 0 0 7 96 131 856 105652
96	40804 66 427 1696 0 0 5 97 141 592 71460
97	40870 157 429 2842 0 0 12 98 142 1482 184330
98	41027 132 430 2908 0 0 10 99 142 1255 158897
99	41159 124 463 3216 0 0 9 100 144 1219 166717
100	41283 189 471 2468 0 0 13 101 142 1696 223954
101	41472 87 472 1914 0 0 6 102 141 744 93172
102	41559 146 474 2834 0 0 10 103 142 1295 169313
103	41705 70 476 987 0 0 5 104 130 592 70706
104	41775 71 477 1116 0 0 5 105 131 625 78627
105	41846 56 478 981 0 0 4 106 130 487 59677
106	41902 42 479 984 0 0 3 107 130 358 42990
107	41944 70 481 985 0 0 5 108 130 613 75589
108	42014 28 482 976 0 0 2 109 130 239 28781
109	42042 58 483 1118 0 0 4 110 131 502 63322
110	42100 85 484 1120 0 0 6 111 131 739 91307
111	42185 14 488 488 0 0 1 112 112 112 12544
112	42199 119 489 3268 0 0 8 113 144 1105 153363
113	42318 208 544 3196 0 0 14 114 143 1915 262823
114	42526 88 574 2346 0 0 6 115 142 793 105697
115	42614 73 600 1910 0 0 5 116 141 650 85020
116	42687 129 602 1708 0 0 9 117 141 1155 148823
117	42816 86 603 1690 0 0 6 118 141 762 97150
118	42902 59 607 2832 0 0 4 119 142 544 74370
119	42961 100 610 1944 0 0 7 120 141 908 118198
120	43061 57 618 1102 0 0 4 121 131 502 63084
121	43118 147 626 2836 0 0 10 122 142 1361 185697
122	43265 56 635 846 0 0 4 123 128 505 63773
123	43321 42 636 841 0 0 3 124 128 377 47385
124	43363 70 637 845 0 0 5 125 128 635 80653
125	43433 56 639 844 0 0 4 126 128 510 65028
126	43489 149 654 3104 0 0 10 127 143 1383 191515
127	43638 88 757 2818 0 0 6 128 142 820 112272
128	43726 102 902 2910 0 0 7 129 142 933 124573
129	43828 14 973 973 0 0 1 130 130 130 16900
130	43842 60 1340 3088 0 0 4 132 143 559 78201
131	43902 45 1342 3084 0 0 3 133 143 418 58302
132	43947 60 1344 3080 0 0 4 134 143 562 79018
133	44007 30 1346 1352 0 0 2 135 137 272 36994
134	44037 15 1348 1348 0 0 1 136 136 136 18496
135	44052 30 1350 3060 0 0 2 137 142 279 38933
136	44082 120 1354 3240 0 0 8 138 144 1133 160487
137	44202 75 1620 1796 0 0 5 140 141 701 98281
138	44277 30 1638 1794 0 0 2 141 141 282 39762
139	44307 30 2160 2852 0 0 2 141 142 283 40045
140	44337 30 2272 3236 0 0 2 142 144 286 40900
141	44367 30 3068 3076 0 0 2 143 143 286 40898

