file 53326 1756984398                                           
version 3
run General-226-20250904-14:13:18-15579
attr configname General
attr datetime 20250904-14:13:18
attr datetimef 20250904-141318
attr experiment General
attr inifile omnetpp.ini
attr iterationvars ""
attr iterationvarsd ""
attr iterationvarsf ""
attr measurement ""
attr network TaxiNetwork
attr processid 15579
attr repetition 226
attr replication #226
attr resultdir results
attr runnumber 226
attr seedset 226
config network TaxiNetwork
config seed-set 226
config num-rngs 1
config sim-time-limit 10s
config repeat 500
config *.numWalkers 1
config *.enableDuplication true
config *.rc 700
config **.node[0].xCor 2933
config **.node[0].yCor 2747
config **.node[1].xCor 2919
config **.node[1].yCor 2817
config **.node[2].xCor 2910
config **.node[2].yCor 2861
config **.node[3].xCor 2429
config **.node[3].yCor 2851
config **.node[4].xCor 2908
config **.node[4].yCor 2714
config **.node[5].xCor 2606
config **.node[5].yCor 2722
config **.node[6].xCor 2575
config **.node[6].yCor 2753
config **.node[7].xCor 2654
config **.node[7].yCor 2513
config **.node[8].xCor 2773
config **.node[8].yCor 2580
config **.node[9].xCor 3043
config **.node[9].yCor 2780
config **.node[10].xCor 3020
config **.node[10].yCor 2813
config **.node[11].xCor 2599
config **.node[11].yCor 2300
config **.node[12].xCor 2917
config **.node[12].yCor 2698
config **.node[13].xCor 2625
config **.node[13].yCor 2641
config **.node[14].xCor 2604
config **.node[14].yCor 2790
config **.node[15].xCor 2786
config **.node[15].yCor 3082
config **.node[16].xCor 2603
config **.node[16].yCor 2802
config **.node[17].xCor 2637
config **.node[17].yCor 2869
config **.node[18].xCor 2675
config **.node[18].yCor 2955
config **.node[19].xCor 2845
config **.node[19].yCor 2937
config **.node[20].xCor 2860
config **.node[20].yCor 2888
config **.node[21].xCor 2843
config **.node[21].yCor 4158
config **.node[22].xCor 2852
config **.node[22].yCor 4017
config **.node[23].xCor 2892
config **.node[23].yCor 4961
config **.node[24].xCor 2313
config **.node[24].yCor 3993
config **.node[25].xCor 2891
config **.node[25].yCor 4959
config **.node[26].xCor 2370
config **.node[26].yCor 4050
config **.node[27].xCor 2788
config **.node[27].yCor 3958
config **.node[28].xCor 2819
config **.node[28].yCor 4428
config **.node[29].xCor 2790
config **.node[29].yCor 3761
config **.node[30].xCor 2809
config **.node[30].yCor 2908
config **.node[31].xCor 2919
config **.node[31].yCor 3575
config **.node[32].xCor 2946
config **.node[32].yCor 3466
config **.node[33].xCor 2911
config **.node[33].yCor 3453
config **.node[34].xCor 2370
config **.node[34].yCor 3656
config **.node[35].xCor 2438
config **.node[35].yCor 3738
config **.node[36].xCor 2737
config **.node[36].yCor 3570
config **.node[37].xCor 2921
config **.node[37].yCor 3698
config **.node[38].xCor 2907
config **.node[38].yCor 5197
config **.node[39].xCor 2860
config **.node[39].yCor 3852
config **.node[40].xCor 2927
config **.node[40].yCor 3684
config **.node[41].xCor 3023
config **.node[41].yCor 5313
config **.node[42].xCor 3220
config **.node[42].yCor 5811
config **.node[43].xCor 3432
config **.node[43].yCor 5715
config **.node[44].xCor 2754
config **.node[44].yCor 2463
config **.node[45].xCor 2646
config **.node[45].yCor 2673
config **.node[46].xCor 3051
config **.node[46].yCor 2792
config **.node[47].xCor 1666
config **.node[47].yCor 3697
config **.node[48].xCor 1662
config **.node[48].yCor 3694
config **.node[49].xCor 1664
config **.node[49].yCor 3667
config **.node[50].xCor 1660
config **.node[50].yCor 3664
config **.node[51].xCor 1710
config **.node[51].yCor 3573
config **.node[52].xCor 2082
config **.node[52].yCor 2650
config **.node[53].xCor 2086
config **.node[53].yCor 2657
config **.node[54].xCor 2257
config **.node[54].yCor 3232
config **.node[55].xCor 2258
config **.node[55].yCor 3225
config **.node[56].xCor 1926
config **.node[56].yCor 2570
config **.node[57].xCor 1926
config **.node[57].yCor 2576
config **.node[58].xCor 2104
config **.node[58].yCor 1758
config **.node[59].xCor 1957
config **.node[59].yCor 1826
config **.node[60].xCor 3473
config **.node[60].yCor 1523
config **.node[61].xCor 3335
config **.node[61].yCor 1726
config **.node[62].xCor 3478
config **.node[62].yCor 1517
config **.node[63].xCor 3386
config **.node[63].yCor 2119
config **.node[64].xCor 3474
config **.node[64].yCor 1762
config **.node[65].xCor 3797
config **.node[65].yCor 2099
config **.node[66].xCor 3642
config **.node[66].yCor 2136
config **.node[67].xCor 3481
config **.node[67].yCor 2334
config **.node[68].xCor 3088
config **.node[68].yCor 1505
config **.node[69].xCor 3037
config **.node[69].yCor 1693
config **.node[70].xCor 3026
config **.node[70].yCor 1700
config **.node[71].xCor 3019
config **.node[71].yCor 669
config **.node[72].xCor 3513
config **.node[72].yCor 1358
config **.node[73].xCor 3545
config **.node[73].yCor 1230
config **.node[74].xCor 4228
config **.node[74].yCor 4220
config **.node[75].xCor 3379
config **.node[75].yCor 1207
config **.node[76].xCor 3596
config **.node[76].yCor 963
config **.node[77].xCor 3637
config **.node[77].yCor 1188
config **.node[78].xCor 3759
config **.node[78].yCor 1030
config **.node[79].xCor 2918
config **.node[79].yCor 1455
config **.node[80].xCor 2711
config **.node[80].yCor 1297
config **.node[81].xCor 439
config **.node[81].yCor 1623
config **.node[82].xCor 2857
config **.node[82].yCor 3581
config **.node[83].xCor 2858
config **.node[83].yCor 3584
config **.node[84].xCor 2999
config **.node[84].yCor 2636
config **.node[85].xCor 2905
config **.node[85].yCor 2778
config **.node[86].xCor 2653
config **.node[86].yCor 2845
config **.node[87].xCor 2864
config **.node[87].yCor 2836
config **.node[88].xCor 2426
config **.node[88].yCor 2892
config **.node[89].xCor 2964
config **.node[89].yCor 2804
config **.node[90].xCor 2586
config **.node[90].yCor 3135
config **.node[91].xCor 2864
config **.node[91].yCor 2980
config **.node[92].xCor 2527
config **.node[92].yCor 3219
config **.node[93].xCor 2863
config **.node[93].yCor 3142
config **.node[94].xCor 2485
config **.node[94].yCor 3269
config **.node[95].xCor 2653
config **.node[95].yCor 1065
config **.node[96].xCor 4062
config **.node[96].yCor 400
config **.node[97].xCor 5762
config **.node[97].yCor 3023
config **.node[98].xCor 1414
config **.node[98].yCor 3461
config **.node[99].xCor 2911
config **.node[99].yCor 1737
config **.node[100].xCor 2595
config **.node[100].yCor 2299
config **.node[101].xCor 2702
config **.node[101].yCor 3419
config **.node[102].xCor 2813
config **.node[102].yCor 3307
config **.node[103].xCor 2638
config **.node[103].yCor 2258
config **.node[104].xCor 2590
config **.node[104].yCor 3125
config **.node[105].xCor 1856
config **.node[105].yCor 2990
config **.node[106].xCor 1894
config **.node[106].yCor 2239
config **.node[107].xCor 383
config **.node[107].yCor 1251
config **.node[108].xCor 3447
config **.node[108].yCor 5489
config **.node[109].xCor 3450
config **.node[109].yCor 5697
config **.node[110].xCor 2719
config **.node[110].yCor 1920
config **.node[111].xCor 2085
config **.node[111].yCor 2389
config **.node[112].xCor 1910
config **.node[112].yCor 2548
config **.node[113].xCor 2069
config **.node[113].yCor 2050
config **.node[114].xCor 2184
config **.node[114].yCor 2209
config **.node[115].xCor 2278
config **.node[115].yCor 2390
config **.node[116].xCor 2249
config **.node[116].yCor 2299
config **.node[117].xCor 2356
config **.node[117].yCor 2303
config **.node[118].xCor 2192
config **.node[118].yCor 2475
config **.node[119].xCor 1720
config **.node[119].yCor 2911
config **.node[120].xCor 2400
config **.node[120].yCor 2887
config **.node[121].xCor 3344
config **.node[121].yCor 1890
config **.node[122].xCor 3136
config **.node[122].yCor 2418
config **.node[123].xCor 3243
config **.node[123].yCor 2525
config **.node[124].xCor 2396
config **.node[124].yCor 1267
config **.node[125].xCor 467
config **.node[125].yCor 1875
config **.node[126].xCor 3506
config **.node[126].yCor 1221
config **.node[127].xCor 1034
config **.node[127].yCor 1474
config **.node[128].xCor 2908
config **.node[128].yCor 1784
config **.node[129].xCor 2876
config **.node[129].yCor 1761
config **.node[130].xCor 2849
config **.node[130].yCor 1795
config **.node[131].xCor 3029
config **.node[131].yCor 1859
config **.node[132].xCor 2924
config **.node[132].yCor 1848
config **.node[133].xCor 3493
config **.node[133].yCor 1559
config **.node[134].xCor 2760
config **.node[134].yCor 1761
config **.node[135].xCor 1644
config **.node[135].yCor 3755
config **.node[136].xCor 1463
config **.node[136].yCor 3432
config **.node[137].xCor 2595
config **.node[137].yCor 2849
config **.node[138].xCor 2581
config **.node[138].yCor 2867
config **.node[139].xCor 2524
config **.node[139].yCor 2911
config **.node[140].xCor 2570
config **.node[140].yCor 2924
config **.node[141].xCor 2676
config **.node[141].yCor 2890
config **.node[142].xCor 2666
config **.node[142].yCor 2876
config **.node[143].xCor 3735
config **.node[143].yCor 1726
config **.node[144].xCor 1637
config **.node[144].yCor 3438

vector 0 TaxiNetwork.node[0] visitedPerTimestep ETV
vector 1 TaxiNetwork.node[11] visitedPerTimestep ETV
vector 2 TaxiNetwork.node[53] visitedPerTimestep ETV
vector 3 TaxiNetwork.node[120] visitedPerTimestep ETV
vector 4 TaxiNetwork.node[30] visitedPerTimestep ETV
vector 5 TaxiNetwork.node[141] visitedPerTimestep ETV
vector 6 TaxiNetwork.node[12] visitedPerTimestep ETV
vector 7 TaxiNetwork.node[14] visitedPerTimestep ETV
vector 8 TaxiNetwork.node[36] visitedPerTimestep ETV
vector 9 TaxiNetwork.node[55] visitedPerTimestep ETV
vector 10 TaxiNetwork.node[18] visitedPerTimestep ETV
vector 11 TaxiNetwork.node[137] visitedPerTimestep ETV
vector 12 TaxiNetwork.node[5] visitedPerTimestep ETV
vector 13 TaxiNetwork.node[1] visitedPerTimestep ETV
vector 14 TaxiNetwork.node[3] visitedPerTimestep ETV
vector 15 TaxiNetwork.node[116] visitedPerTimestep ETV
vector 16 TaxiNetwork.node[114] visitedPerTimestep ETV
vector 17 TaxiNetwork.node[111] visitedPerTimestep ETV
vector 18 TaxiNetwork.node[102] visitedPerTimestep ETV
vector 19 TaxiNetwork.node[90] visitedPerTimestep ETV
vector 20 TaxiNetwork.node[35] visitedPerTimestep ETV
vector 21 TaxiNetwork.node[139] visitedPerTimestep ETV
vector 22 TaxiNetwork.node[27] visitedPerTimestep ETV
vector 23 TaxiNetwork.node[32] visitedPerTimestep ETV
vector 24 TaxiNetwork.node[101] visitedPerTimestep ETV
vector 25 TaxiNetwork.node[19] visitedPerTimestep ETV
vector 26 TaxiNetwork.node[31] visitedPerTimestep ETV
vector 27 TaxiNetwork.node[94] visitedPerTimestep ETV
vector 28 TaxiNetwork.node[39] visitedPerTimestep ETV
vector 29 TaxiNetwork.node[21] visitedPerTimestep ETV
vector 30 TaxiNetwork.node[83] visitedPerTimestep ETV
vector 31 TaxiNetwork.node[15] visitedPerTimestep ETV
vector 32 TaxiNetwork.node[40] visitedPerTimestep ETV
vector 33 TaxiNetwork.node[93] visitedPerTimestep ETV
vector 34 TaxiNetwork.node[87] visitedPerTimestep ETV
vector 35 TaxiNetwork.node[74] visitedPerTimestep ETV
vector 36 TaxiNetwork.node[46] visitedPerTimestep ETV
vector 37 TaxiNetwork.node[20] visitedPerTimestep ETV
vector 38 TaxiNetwork.node[104] visitedPerTimestep ETV
vector 39 TaxiNetwork.node[91] visitedPerTimestep ETV
vector 40 TaxiNetwork.node[13] visitedPerTimestep ETV
vector 41 TaxiNetwork.node[100] visitedPerTimestep ETV
vector 42 TaxiNetwork.node[110] visitedPerTimestep ETV
vector 43 TaxiNetwork.node[80] visitedPerTimestep ETV
vector 44 TaxiNetwork.node[75] visitedPerTimestep ETV
vector 45 TaxiNetwork.node[62] visitedPerTimestep ETV
vector 46 TaxiNetwork.node[69] visitedPerTimestep ETV
vector 47 TaxiNetwork.node[68] visitedPerTimestep ETV
vector 48 TaxiNetwork.node[63] visitedPerTimestep ETV
vector 49 TaxiNetwork.node[67] visitedPerTimestep ETV
vector 50 TaxiNetwork.node[84] visitedPerTimestep ETV
vector 51 TaxiNetwork.node[138] visitedPerTimestep ETV
vector 52 TaxiNetwork.node[10] visitedPerTimestep ETV
vector 53 TaxiNetwork.node[7] visitedPerTimestep ETV
vector 54 TaxiNetwork.node[92] visitedPerTimestep ETV
vector 55 TaxiNetwork.node[82] visitedPerTimestep ETV
vector 56 TaxiNetwork.node[16] visitedPerTimestep ETV
vector 57 TaxiNetwork.node[8] visitedPerTimestep ETV
vector 58 TaxiNetwork.node[29] visitedPerTimestep ETV
vector 59 TaxiNetwork.node[33] visitedPerTimestep ETV
vector 60 TaxiNetwork.node[54] visitedPerTimestep ETV
vector 61 TaxiNetwork.node[88] visitedPerTimestep ETV
vector 62 TaxiNetwork.node[45] visitedPerTimestep ETV
vector 63 TaxiNetwork.node[52] visitedPerTimestep ETV
vector 64 TaxiNetwork.node[85] visitedPerTimestep ETV
vector 65 TaxiNetwork.node[140] visitedPerTimestep ETV
vector 66 TaxiNetwork.node[6] visitedPerTimestep ETV
vector 67 TaxiNetwork.node[105] visitedPerTimestep ETV
vector 68 TaxiNetwork.node[17] visitedPerTimestep ETV
vector 69 TaxiNetwork.node[4] visitedPerTimestep ETV
vector 70 TaxiNetwork.node[128] visitedPerTimestep ETV
vector 71 TaxiNetwork.node[79] visitedPerTimestep ETV
vector 72 TaxiNetwork.node[124] visitedPerTimestep ETV
vector 73 TaxiNetwork.node[99] visitedPerTimestep ETV
vector 74 TaxiNetwork.node[103] visitedPerTimestep ETV
vector 75 TaxiNetwork.node[112] visitedPerTimestep ETV
vector 76 TaxiNetwork.node[113] visitedPerTimestep ETV
vector 77 TaxiNetwork.node[59] visitedPerTimestep ETV
vector 78 TaxiNetwork.node[117] visitedPerTimestep ETV
vector 79 TaxiNetwork.node[118] visitedPerTimestep ETV
vector 80 TaxiNetwork.node[123] visitedPerTimestep ETV
vector 81 TaxiNetwork.node[121] visitedPerTimestep ETV
vector 82 TaxiNetwork.node[132] visitedPerTimestep ETV
vector 83 TaxiNetwork.node[70] visitedPerTimestep ETV
vector 84 TaxiNetwork.node[131] visitedPerTimestep ETV
vector 85 TaxiNetwork.node[64] visitedPerTimestep ETV
vector 86 TaxiNetwork.node[61] visitedPerTimestep ETV
vector 87 TaxiNetwork.node[134] visitedPerTimestep ETV
vector 88 TaxiNetwork.node[130] visitedPerTimestep ETV
vector 89 TaxiNetwork.node[44] visitedPerTimestep ETV
vector 90 TaxiNetwork.node[26] visitedPerTimestep ETV
vector 91 TaxiNetwork.node[24] visitedPerTimestep ETV
vector 92 TaxiNetwork.node[142] visitedPerTimestep ETV
vector 93 TaxiNetwork.node[2] visitedPerTimestep ETV
vector 94 TaxiNetwork.node[89] visitedPerTimestep ETV
vector 95 TaxiNetwork.node[86] visitedPerTimestep ETV
vector 96 TaxiNetwork.node[28] visitedPerTimestep ETV
vector 97 TaxiNetwork.node[25] visitedPerTimestep ETV
vector 98 TaxiNetwork.node[38] visitedPerTimestep ETV
vector 99 TaxiNetwork.node[23] visitedPerTimestep ETV
vector 100 TaxiNetwork.node[22] visitedPerTimestep ETV
vector 101 TaxiNetwork.node[60] visitedPerTimestep ETV
vector 102 TaxiNetwork.node[115] visitedPerTimestep ETV
vector 103 TaxiNetwork.node[58] visitedPerTimestep ETV
vector 104 TaxiNetwork.node[34] visitedPerTimestep ETV
vector 105 TaxiNetwork.node[37] visitedPerTimestep ETV
vector 106 TaxiNetwork.node[66] visitedPerTimestep ETV
vector 107 TaxiNetwork.node[133] visitedPerTimestep ETV
vector 108 TaxiNetwork.node[72] visitedPerTimestep ETV
vector 109 TaxiNetwork.node[143] visitedPerTimestep ETV
vector 110 TaxiNetwork.node[65] visitedPerTimestep ETV
vector 111 TaxiNetwork.node[129] visitedPerTimestep ETV
vector 112 TaxiNetwork.node[73] visitedPerTimestep ETV
vector 113 TaxiNetwork.node[127] visitedPerTimestep ETV
vector 114 TaxiNetwork.node[119] visitedPerTimestep ETV
vector 115 TaxiNetwork.node[56] visitedPerTimestep ETV
vector 116 TaxiNetwork.node[122] visitedPerTimestep ETV
vector 117 TaxiNetwork.node[9] visitedPerTimestep ETV
vector 118 TaxiNetwork.node[144] visitedPerTimestep ETV
vector 119 TaxiNetwork.node[107] visitedPerTimestep ETV
vector 120 TaxiNetwork.node[81] visitedPerTimestep ETV
vector 121 TaxiNetwork.node[125] visitedPerTimestep ETV
vector 122 TaxiNetwork.node[78] visitedPerTimestep ETV
vector 123 TaxiNetwork.node[76] visitedPerTimestep ETV
vector 124 TaxiNetwork.node[126] visitedPerTimestep ETV
vector 125 TaxiNetwork.node[71] visitedPerTimestep ETV
vector 126 TaxiNetwork.node[95] visitedPerTimestep ETV
vector 127 TaxiNetwork.node[77] visitedPerTimestep ETV
vector 128 TaxiNetwork.node[136] visitedPerTimestep ETV
vector 129 TaxiNetwork.node[106] visitedPerTimestep ETV
vector 130 TaxiNetwork.node[51] visitedPerTimestep ETV
vector 131 TaxiNetwork.node[57] visitedPerTimestep ETV
vector 132 TaxiNetwork.node[98] visitedPerTimestep ETV
vector 133 TaxiNetwork.node[47] visitedPerTimestep ETV
vector 134 TaxiNetwork.node[48] visitedPerTimestep ETV
vector 135 TaxiNetwork.node[49] visitedPerTimestep ETV
vector 136 TaxiNetwork.node[135] visitedPerTimestep ETV
vector 137 TaxiNetwork.node[109] visitedPerTimestep ETV
vector 138 TaxiNetwork.node[42] visitedPerTimestep ETV
vector 139 TaxiNetwork.node[108] visitedPerTimestep ETV
vector 140 TaxiNetwork.node[41] visitedPerTimestep ETV
vector 141 TaxiNetwork.node[43] visitedPerTimestep ETV
vector 142 TaxiNetwork.node[50] visitedPerTimestep ETV
vector 143 TaxiNetwork.node[97] visitedPerTimestep ETV
0	16920 443 1 5768 0 0 36 1 144 4321 559563
1	17363 444 2 5772 0 0 36 2 144 4371 569349
2	17807 341 3 5736 0 0 28 3 144 3275 407887
3	18148 471 4 5300 0 0 38 4 144 4728 619726
4	18619 317 5 5724 0 0 26 5 144 3046 398032
5	18936 526 6 5528 0 0 43 6 144 5130 664182
6	19462 423 7 5296 0 0 34 7 144 4267 564303
7	19885 365 8 4924 0 0 29 8 144 3698 495604
8	20250 279 10 5484 0 0 23 9 144 2610 335580
9	20529 352 11 5680 0 0 28 10 144 3532 464470
10	20881 600 12 5716 0 0 44 11 144 5703 764853
11	21481 437 13 4696 0 0 33 12 144 3833 481633
12	21918 336 15 5344 0 0 25 13 144 3048 398570
13	22254 456 16 5760 0 0 34 14 144 4191 541779
14	22710 503 17 4904 0 0 37 15 144 4746 628904
15	23213 213 18 5748 0 0 16 16 144 1902 243292
16	23426 201 19 3620 0 0 15 17 144 1787 227083
17	23627 211 20 2084 0 0 16 18 137 1759 209917
18	23838 464 22 5172 0 0 35 19 144 4153 534519
19	24302 536 23 5568 0 0 40 20 144 4909 634069
20	24838 226 24 5604 0 0 17 21 144 2006 255254
21	25064 431 28 5692 0 0 32 22 144 3961 524807
22	25495 269 30 5608 0 0 20 23 144 2501 332671
23	25764 364 32 5128 0 0 27 24 144 3325 426425
24	26128 498 33 5476 0 0 37 25 144 4589 596097
25	26626 469 34 5696 0 0 35 26 144 4283 555369
26	27095 238 35 5316 0 0 18 27 144 2092 267178
27	27333 531 37 5596 0 0 39 28 144 5050 672024
28	27864 158 38 2858 0 0 12 29 142 1343 162421
29	28022 187 39 5312 0 0 14 30 144 1701 220135
30	28209 245 40 5600 0 0 18 31 144 2334 315102
31	28454 420 41 5564 0 0 31 32 144 3865 505785
32	28874 244 42 3596 0 0 18 33 143 2229 287737
33	29118 404 43 5616 0 0 30 34 144 3732 484670
34	29522 404 44 5556 0 0 30 35 144 3720 477070
35	29926 151 45 5444 0 0 11 36 144 1453 202281
36	30077 230 50 5500 0 0 17 37 144 2138 280998
37	30307 545 51 5700 0 0 40 38 144 5150 683068
38	30852 512 53 5260 0 0 38 39 144 4762 623888
39	31364 366 55 5156 0 0 27 40 144 3376 434570
40	31730 352 56 5364 0 0 26 41 144 3319 439975
41	32082 379 57 5636 0 0 28 42 144 3524 458620
42	32461 284 58 5664 0 0 21 43 144 2652 347120
43	32745 132 59 2492 0 0 10 44 142 1180 148026
44	32877 78 60 2924 0 0 6 45 142 683 84223
45	32955 146 61 5652 0 0 11 46 144 1330 170820
46	33101 229 62 5656 0 0 17 47 144 2174 289194
47	33330 250 63 4572 0 0 19 48 144 2277 283781
48	33580 201 64 3920 0 0 15 49 144 1892 246856
49	33781 172 65 4872 0 0 13 50 144 1555 196499
50	33953 422 66 5520 0 0 31 51 144 4037 537649
51	34375 406 70 5684 0 0 30 52 144 3862 508814
52	34781 410 71 5560 0 0 30 53 144 3922 522490
53	35191 469 72 5712 0 0 35 54 144 4321 554673
54	35660 373 77 5704 0 0 28 55 144 3477 445223
55	36033 258 78 5720 0 0 19 56 144 2467 333559
56	36291 351 80 5628 0 0 26 57 144 3310 432670
57	36642 405 85 5708 0 0 30 58 144 3849 504221
58	37047 370 95 5468 0 0 27 59 144 3562 481508
59	37417 440 96 5620 0 0 32 60 144 4241 571969
60	37857 298 99 5572 0 0 22 61 144 2821 370805
61	38155 405 100 5168 0 0 30 62 144 3778 488904
62	38560 349 101 4396 0 0 26 63 144 3201 402831
63	38909 382 104 4624 0 0 28 64 144 3666 490024
64	39291 328 107 5552 0 0 24 65 144 3131 415781
65	39619 485 111 5036 0 0 36 66 144 4617 605023
66	40104 498 113 5732 0 0 37 67 144 4593 586957
67	40602 150 116 5592 0 0 11 68 144 1419 188091
68	40752 389 121 5348 0 0 29 69 144 3652 469430
69	41141 382 130 5632 0 0 28 70 144 3675 490085
70	41523 365 132 5228 0 0 27 71 144 3482 460042
71	41888 241 133 5660 0 0 18 72 144 2261 292927
72	42129 67 134 5780 0 0 5 73 144 615 79159
73	42196 160 135 4092 0 0 12 74 144 1482 189316
74	42356 512 136 5752 0 0 38 75 144 4851 634545
75	42868 119 139 5740 0 0 9 76 144 1103 138223
76	42987 134 140 5744 0 0 10 77 144 1240 157772
77	43121 53 141 2484 0 0 4 78 142 453 53757
78	43174 189 142 3416 0 0 14 79 143 1773 229563
79	43363 324 143 3664 0 0 24 80 144 3051 391915
80	43687 408 153 5756 0 0 30 81 144 3858 504848
81	44095 244 154 5224 0 0 18 82 144 2315 305955
82	44339 293 155 4072 0 0 22 83 144 2752 352036
83	44632 215 156 4568 0 0 16 84 144 2061 271423
84	44847 173 167 4864 0 0 13 85 144 1606 203250
85	45020 107 168 4340 0 0 8 86 144 1000 127986
86	45127 119 170 5212 0 0 9 87 144 1091 136389
87	45246 244 177 5640 0 0 18 88 144 2366 314408
88	45490 134 183 5648 0 0 10 89 144 1285 167983
89	45624 457 187 5292 0 0 34 90 144 4254 541180
90	46081 136 217 4260 0 0 10 91 144 1314 175494
91	46217 162 218 5480 0 0 12 92 144 1517 195203
92	46379 366 221 5488 0 0 27 93 144 3448 446086
93	46745 287 223 5548 0 0 21 94 144 2769 369347
94	47032 366 233 5624 0 0 27 95 144 3560 473506
95	47398 491 236 5728 0 0 36 96 144 4776 638898
96	47889 177 244 5136 0 0 13 97 144 1709 228103
97	48066 54 245 4228 0 0 4 98 144 526 70676
98	48120 68 246 5436 0 0 5 99 144 668 90754
99	48188 69 247 4244 0 0 5 100 144 670 91236
100	48257 218 249 5144 0 0 15 101 144 1889 241951
101	48475 217 261 4312 0 0 15 102 144 1913 247099
102	48692 398 302 5004 0 0 27 103 144 3574 477250
103	49090 103 305 5784 0 0 7 104 145 921 122473
104	49193 263 331 4472 0 0 18 105 144 2354 310760
105	49456 248 347 5612 0 0 17 106 144 2237 297333
106	49704 102 373 3916 0 0 7 107 144 905 118571
107	49806 248 404 5220 0 0 17 108 144 2268 304906
108	50054 43 407 3952 0 0 3 109 144 375 47501
109	50097 161 408 4328 0 0 11 110 144 1459 195331
110	50258 118 410 4588 0 0 8 111 144 1095 150931
111	50376 294 424 5776 0 0 20 112 144 2693 364981
112	50670 74 427 3928 0 0 5 113 144 678 92602
113	50744 159 432 2954 0 0 11 114 142 1415 183271
114	50903 129 508 4740 0 0 9 115 144 1152 148152
115	51032 175 509 4736 0 0 12 116 144 1562 204502
116	51207 369 513 5668 0 0 25 117 144 3385 460915
117	51576 308 515 4596 0 0 21 118 144 2806 377238
118	51884 74 612 5576 0 0 5 119 144 688 95138
119	51958 58 681 2952 0 0 4 120 142 524 69128
120	52016 28 833 835 0 0 2 121 122 243 29525
121	52044 29 834 2950 0 0 2 122 142 264 35048
122	52073 14 844 844 0 0 1 123 123 123 15129
123	52087 59 867 4316 0 0 4 124 144 554 77012
124	52146 88 876 4336 0 0 6 125 144 822 112982
125	52234 14 901 901 0 0 1 126 126 126 15876
126	52248 29 902 2014 0 0 2 127 137 264 34898
127	52277 119 905 4332 0 0 8 128 144 1128 159248
128	52396 29 958 1862 0 0 2 129 134 263 34597
129	52425 60 1038 1888 0 0 4 130 137 533 71047
130	52485 60 1308 5588 0 0 4 131 144 563 79369
131	52545 45 1476 2738 0 0 3 132 142 407 55277
132	52590 75 1860 5060 0 0 5 134 144 700 98120
133	52665 60 1866 5048 0 0 4 135 144 553 76499
134	52725 60 1868 5580 0 0 4 136 144 561 78737
135	52785 60 1870 5584 0 0 4 137 144 569 80977
136	52845 15 1876 1876 0 0 1 137 137 137 18769
137	52860 120 2136 5428 0 0 8 138 144 1139 162197
138	52980 105 2138 5432 0 0 7 139 144 992 140600
139	53085 105 2140 5440 0 0 7 140 144 998 142306
140	53190 75 2148 5388 0 0 5 141 144 715 102253
141	53265 30 2164 5392 0 0 2 142 144 286 40900
142	53295 15 5056 5056 0 0 1 144 144 144 20736
143	53310 15 5408 5408 0 0 1 144 144 144 20736

