version 3
run General-216-20250904-14:13:17-15564
attr configname General
attr datetime 20250904-14:13:17
attr datetimef 20250904-141317
attr experiment General
attr inifile omnetpp.ini
attr iterationvars ""
attr iterationvarsd ""
attr iterationvarsf ""
attr measurement ""
attr network TaxiNetwork
attr processid 15564
attr repetition 216
attr replication #216
attr resultdir results
attr runnumber 216
attr seedset 216
config network TaxiNetwork
config seed-set 216
config num-rngs 1
config sim-time-limit 10s
config repeat 500
config *.numWalkers 1
config *.enableDuplication true
config *.rc 700
config **.node[0].xCor 2933
config **.node[0].yCor 2747
config **.node[1].xCor 2919
config **.node[1].yCor 2817
config **.node[2].xCor 2910
config **.node[2].yCor 2861
config **.node[3].xCor 2429
config **.node[3].yCor 2851
config **.node[4].xCor 2908
config **.node[4].yCor 2714
config **.node[5].xCor 2606
config **.node[5].yCor 2722
config **.node[6].xCor 2575
config **.node[6].yCor 2753
config **.node[7].xCor 2654
config **.node[7].yCor 2513
config **.node[8].xCor 2773
config **.node[8].yCor 2580
config **.node[9].xCor 3043
config **.node[9].yCor 2780
config **.node[10].xCor 3020
config **.node[10].yCor 2813
config **.node[11].xCor 2599
config **.node[11].yCor 2300
config **.node[12].xCor 2917
config **.node[12].yCor 2698
config **.node[13].xCor 2625
config **.node[13].yCor 2641
config **.node[14].xCor 2604
config **.node[14].yCor 2790
config **.node[15].xCor 2786
config **.node[15].yCor 3082
config **.node[16].xCor 2603
config **.node[16].yCor 2802
config **.node[17].xCor 2637
config **.node[17].yCor 2869
config **.node[18].xCor 2675
config **.node[18].yCor 2955
config **.node[19].xCor 2845
config **.node[19].yCor 2937
config **.node[20].xCor 2860
config **.node[20].yCor 2888
config **.node[21].xCor 2843
config **.node[21].yCor 4158
config **.node[22].xCor 2852
config **.node[22].yCor 4017
config **.node[23].xCor 2892
config **.node[23].yCor 4961
config **.node[24].xCor 2313
config **.node[24].yCor 3993
config **.node[25].xCor 2891
config **.node[25].yCor 4959
config **.node[26].xCor 2370
config **.node[26].yCor 4050
config **.node[27].xCor 2788
config **.node[27].yCor 3958
config **.node[28].xCor 2819
config **.node[28].yCor 4428
config **.node[29].xCor 2790
config **.node[29].yCor 3761
config **.node[30].xCor 2809
config **.node[30].yCor 2908
config **.node[31].xCor 2919
config **.node[31].yCor 3575
config **.node[32].xCor 2946
config **.node[32].yCor 3466
config **.node[33].xCor 2911
config **.node[33].yCor 3453
config **.node[34].xCor 2370
config **.node[34].yCor 3656
config **.node[35].xCor 2438
config **.node[35].yCor 3738
config **.node[36].xCor 2737
config **.node[36].yCor 3570
config **.node[37].xCor 2921
config **.node[37].yCor 3698
config **.node[38].xCor 2907
config **.node[38].yCor 5197
config **.node[39].xCor 2860
config **.node[39].yCor 3852
config **.node[40].xCor 2927
config **.node[40].yCor 3684
config **.node[41].xCor 3023
config **.node[41].yCor 5313
config **.node[42].xCor 3220
config **.node[42].yCor 5811
config **.node[43].xCor 3432
config **.node[43].yCor 5715
config **.node[44].xCor 2754
config **.node[44].yCor 2463
config **.node[45].xCor 2646
config **.node[45].yCor 2673
config **.node[46].xCor 3051
config **.node[46].yCor 2792
config **.node[47].xCor 1666
config **.node[47].yCor 3697
config **.node[48].xCor 1662
config **.node[48].yCor 3694
config **.node[49].xCor 1664
config **.node[49].yCor 3667
config **.node[50].xCor 1660
config **.node[50].yCor 3664
config **.node[51].xCor 1710
config **.node[51].yCor 3573
config **.node[52].xCor 2082
config **.node[52].yCor 2650
config **.node[53].xCor 2086
config **.node[53].yCor 2657
config **.node[54].xCor 2257
config **.node[54].yCor 3232
config **.node[55].xCor 2258
config **.node[55].yCor 3225
config **.node[56].xCor 1926
config **.node[56].yCor 2570
config **.node[57].xCor 1926
config **.node[57].yCor 2576
config **.node[58].xCor 2104
config **.node[58].yCor 1758
config **.node[59].xCor 1957
config **.node[59].yCor 1826
config **.node[60].xCor 3473
config **.node[60].yCor 1523
config **.node[61].xCor 3335
config **.node[61].yCor 1726
config **.node[62].xCor 3478
config **.node[62].yCor 1517
config **.node[63].xCor 3386
config **.node[63].yCor 2119
config **.node[64].xCor 3474
config **.node[64].yCor 1762
config **.node[65].xCor 3797
config **.node[65].yCor 2099
config **.node[66].xCor 3642
config **.node[66].yCor 2136
config **.node[67].xCor 3481
config **.node[67].yCor 2334
config **.node[68].xCor 3088
config **.node[68].yCor 1505
config **.node[69].xCor 3037
config **.node[69].yCor 1693
config **.node[70].xCor 3026
config **.node[70].yCor 1700
config **.node[71].xCor 3019
config **.node[71].yCor 669
config **.node[72].xCor 3513
config **.node[72].yCor 1358
config **.node[73].xCor 3545
config **.node[73].yCor 1230
config **.node[74].xCor 4228
config **.node[74].yCor 4220
config **.node[75].xCor 3379
config **.node[75].yCor 1207
config **.node[76].xCor 3596
config **.node[76].yCor 963
config **.node[77].xCor 3637
config **.node[77].yCor 1188
config **.node[78].xCor 3759
config **.node[78].yCor 1030
config **.node[79].xCor 2918
config **.node[79].yCor 1455
config **.node[80].xCor 2711
config **.node[80].yCor 1297
config **.node[81].xCor 439
config **.node[81].yCor 1623
config **.node[82].xCor 2857
config **.node[82].yCor 3581
config **.node[83].xCor 2858
config **.node[83].yCor 3584
config **.node[84].xCor 2999
config **.node[84].yCor 2636
config **.node[85].xCor 2905
config **.node[85].yCor 2778
config **.node[86].xCor 2653
config **.node[86].yCor 2845
config **.node[87].xCor 2864
config **.node[87].yCor 2836
config **.node[88].xCor 2426
config **.node[88].yCor 2892
config **.node[89].xCor 2964
config **.node[89].yCor 2804
config **.node[90].xCor 2586
config **.node[90].yCor 3135
config **.node[91].xCor 2864
config **.node[91].yCor 2980
config **.node[92].xCor 2527
config **.node[92].yCor 3219
config **.node[93].xCor 2863
config **.node[93].yCor 3142
config **.node[94].xCor 2485
config **.node[94].yCor 3269
config **.node[95].xCor 2653
config **.node[95].yCor 1065
config **.node[96].xCor 4062
config **.node[96].yCor 400
config **.node[97].xCor 5762
config **.node[97].yCor 3023
config **.node[98].xCor 1414
config **.node[98].yCor 3461
config **.node[99].xCor 2911
config **.node[99].yCor 1737
config **.node[100].xCor 2595
config **.node[100].yCor 2299
config **.node[101].xCor 2702
config **.node[101].yCor 3419
config **.node[102].xCor 2813
config **.node[102].yCor 3307
config **.node[103].xCor 2638
config **.node[103].yCor 2258
config **.node[104].xCor 2590
config **.node[104].yCor 3125
config **.node[105].xCor 1856
config **.node[105].yCor 2990
config **.node[106].xCor 1894
config **.node[106].yCor 2239
config **.node[107].xCor 383
config **.node[107].yCor 1251
config **.node[108].xCor 3447
config **.node[108].yCor 5489
config **.node[109].xCor 3450
config **.node[109].yCor 5697
config **.node[110].xCor 2719
config **.node[110].yCor 1920
config **.node[111].xCor 2085
config **.node[111].yCor 2389
config **.node[112].xCor 1910
config **.node[112].yCor 2548
config **.node[113].xCor 2069
config **.node[113].yCor 2050
config **.node[114].xCor 2184
config **.node[114].yCor 2209
config **.node[115].xCor 2278
config **.node[115].yCor 2390
config **.node[116].xCor 2249
config **.node[116].yCor 2299
config **.node[117].xCor 2356
config **.node[117].yCor 2303
config **.node[118].xCor 2192
config **.node[118].yCor 2475
config **.node[119].xCor 1720
config **.node[119].yCor 2911
config **.node[120].xCor 2400
config **.node[120].yCor 2887
config **.node[121].xCor 3344
config **.node[121].yCor 1890
config **.node[122].xCor 3136
config **.node[122].yCor 2418
config **.node[123].xCor 3243
config **.node[123].yCor 2525
config **.node[124].xCor 2396
config **.node[124].yCor 1267
config **.node[125].xCor 467
config **.node[125].yCor 1875
config **.node[126].xCor 3506
config **.node[126].yCor 1221
config **.node[127].xCor 1034
config **.node[127].yCor 1474
config **.node[128].xCor 2908
config **.node[128].yCor 1784
config **.node[129].xCor 2876
config **.node[129].yCor 1761
config **.node[130].xCor 2849
config **.node[130].yCor 1795
config **.node[131].xCor 3029
config **.node[131].yCor 1859
config **.node[132].xCor 2924
config **.node[132].yCor 1848
config **.node[133].xCor 3493
config **.node[133].yCor 1559
config **.node[134].xCor 2760
config **.node[134].yCor 1761
config **.node[135].xCor 1644
config **.node[135].yCor 3755
config **.node[136].xCor 1463
config **.node[136].yCor 3432
config **.node[137].xCor 2595
config **.node[137].yCor 2849
config **.node[138].xCor 2581
config **.node[138].yCor 2867
config **.node[139].xCor 2524
config **.node[139].yCor 2911
config **.node[140].xCor 2570
config **.node[140].yCor 2924
config **.node[141].xCor 2676
config **.node[141].yCor 2890
config **.node[142].xCor 2666
config **.node[142].yCor 2876
config **.node[143].xCor 3735
config **.node[143].yCor 1726
config **.node[144].xCor 1637
config **.node[144].yCor 3438

vector 0 TaxiNetwork.node[137] visitedPerTimestep ETV
vector 1 TaxiNetwork.node[18] visitedPerTimestep ETV
vector 2 TaxiNetwork.node[33] visitedPerTimestep ETV
vector 3 TaxiNetwork.node[17] visitedPerTimestep ETV
vector 4 TaxiNetwork.node[11] visitedPerTimestep ETV
vector 5 TaxiNetwork.node[141] visitedPerTimestep ETV
vector 6 TaxiNetwork.node[15] visitedPerTimestep ETV
vector 7 TaxiNetwork.node[101] visitedPerTimestep ETV
vector 8 TaxiNetwork.node[104] visitedPerTimestep ETV
vector 9 TaxiNetwork.node[84] visitedPerTimestep ETV
vector 10 TaxiNetwork.node[142] visitedPerTimestep ETV
vector 11 TaxiNetwork.node[32] visitedPerTimestep ETV
vector 12 TaxiNetwork.node[139] visitedPerTimestep ETV
vector 13 TaxiNetwork.node[56] visitedPerTimestep ETV
vector 14 TaxiNetwork.node[3] visitedPerTimestep ETV
vector 15 TaxiNetwork.node[44] visitedPerTimestep ETV
vector 16 TaxiNetwork.node[16] visitedPerTimestep ETV
vector 17 TaxiNetwork.node[2] visitedPerTimestep ETV
vector 18 TaxiNetwork.node[118] visitedPerTimestep ETV
vector 19 TaxiNetwork.node[117] visitedPerTimestep ETV
vector 20 TaxiNetwork.node[52] visitedPerTimestep ETV
vector 21 TaxiNetwork.node[5] visitedPerTimestep ETV
vector 22 TaxiNetwork.node[54] visitedPerTimestep ETV
vector 23 TaxiNetwork.node[35] visitedPerTimestep ETV
vector 24 TaxiNetwork.node[31] visitedPerTimestep ETV
vector 25 TaxiNetwork.node[90] visitedPerTimestep ETV
vector 26 TaxiNetwork.node[53] visitedPerTimestep ETV
vector 27 TaxiNetwork.node[105] visitedPerTimestep ETV
vector 28 TaxiNetwork.node[120] visitedPerTimestep ETV
vector 29 TaxiNetwork.node[4] visitedPerTimestep ETV
vector 30 TaxiNetwork.node[67] visitedPerTimestep ETV
vector 31 TaxiNetwork.node[63] visitedPerTimestep ETV
vector 32 TaxiNetwork.node[64] visitedPerTimestep ETV
vector 33 TaxiNetwork.node[129] visitedPerTimestep ETV
vector 34 TaxiNetwork.node[134] visitedPerTimestep ETV
vector 35 TaxiNetwork.node[132] visitedPerTimestep ETV
vector 36 TaxiNetwork.node[133] visitedPerTimestep ETV
vector 37 TaxiNetwork.node[113] visitedPerTimestep ETV
vector 38 TaxiNetwork.node[110] visitedPerTimestep ETV
vector 39 TaxiNetwork.node[79] visitedPerTimestep ETV
vector 40 TaxiNetwork.node[126] visitedPerTimestep ETV
vector 41 TaxiNetwork.node[60] visitedPerTimestep ETV
vector 42 TaxiNetwork.node[143] visitedPerTimestep ETV
vector 43 TaxiNetwork.node[89] visitedPerTimestep ETV
vector 44 TaxiNetwork.node[7] visitedPerTimestep ETV
vector 45 TaxiNetwork.node[0] visitedPerTimestep ETV
vector 46 TaxiNetwork.node[92] visitedPerTimestep ETV
vector 47 TaxiNetwork.node[9] visitedPerTimestep ETV
vector 48 TaxiNetwork.node[46] visitedPerTimestep ETV
vector 49 TaxiNetwork.node[10] visitedPerTimestep ETV
vector 50 TaxiNetwork.node[123] visitedPerTimestep ETV
vector 51 TaxiNetwork.node[12] visitedPerTimestep ETV
vector 52 TaxiNetwork.node[19] visitedPerTimestep ETV
vector 53 TaxiNetwork.node[1] visitedPerTimestep ETV
vector 54 TaxiNetwork.node[91] visitedPerTimestep ETV
vector 55 TaxiNetwork.node[57] visitedPerTimestep ETV
vector 56 TaxiNetwork.node[119] visitedPerTimestep ETV
vector 57 TaxiNetwork.node[98] visitedPerTimestep ETV
vector 58 TaxiNetwork.node[50] visitedPerTimestep ETV
vector 59 TaxiNetwork.node[49] visitedPerTimestep ETV
vector 60 TaxiNetwork.node[144] visitedPerTimestep ETV
vector 61 TaxiNetwork.node[51] visitedPerTimestep ETV
vector 62 TaxiNetwork.node[47] visitedPerTimestep ETV
vector 63 TaxiNetwork.node[106] visitedPerTimestep ETV
vector 64 TaxiNetwork.node[115] visitedPerTimestep ETV
vector 65 TaxiNetwork.node[13] visitedPerTimestep ETV
vector 66 TaxiNetwork.node[88] visitedPerTimestep ETV
vector 67 TaxiNetwork.node[111] visitedPerTimestep ETV
vector 68 TaxiNetwork.node[122] visitedPerTimestep ETV
vector 69 TaxiNetwork.node[20] visitedPerTimestep ETV
vector 70 TaxiNetwork.node[86] visitedPerTimestep ETV
vector 71 TaxiNetwork.node[93] visitedPerTimestep ETV
vector 72 TaxiNetwork.node[45] visitedPerTimestep ETV
vector 73 TaxiNetwork.node[140] visitedPerTimestep ETV
vector 74 TaxiNetwork.node[55] visitedPerTimestep ETV
vector 75 TaxiNetwork.node[116] visitedPerTimestep ETV
vector 76 TaxiNetwork.node[14] visitedPerTimestep ETV
vector 77 TaxiNetwork.node[103] visitedPerTimestep ETV
vector 78 TaxiNetwork.node[138] visitedPerTimestep ETV
vector 79 TaxiNetwork.node[94] visitedPerTimestep ETV
vector 80 TaxiNetwork.node[102] visitedPerTimestep ETV
vector 81 TaxiNetwork.node[6] visitedPerTimestep ETV
vector 82 TaxiNetwork.node[87] visitedPerTimestep ETV
vector 83 TaxiNetwork.node[30] visitedPerTimestep ETV
vector 84 TaxiNetwork.node[85] visitedPerTimestep ETV
vector 85 TaxiNetwork.node[36] visitedPerTimestep ETV
vector 86 TaxiNetwork.node[112] visitedPerTimestep ETV
vector 87 TaxiNetwork.node[114] visitedPerTimestep ETV
vector 88 TaxiNetwork.node[29] visitedPerTimestep ETV
vector 89 TaxiNetwork.node[100] visitedPerTimestep ETV
vector 90 TaxiNetwork.node[66] visitedPerTimestep ETV
vector 91 TaxiNetwork.node[136] visitedPerTimestep ETV
vector 92 TaxiNetwork.node[135] visitedPerTimestep ETV
vector 93 TaxiNetwork.node[48] visitedPerTimestep ETV
vector 94 TaxiNetwork.node[8] visitedPerTimestep ETV
vector 95 TaxiNetwork.node[83] visitedPerTimestep ETV
vector 96 TaxiNetwork.node[27] visitedPerTimestep ETV
vector 97 TaxiNetwork.node[28] visitedPerTimestep ETV
vector 98 TaxiNetwork.node[26] visitedPerTimestep ETV
vector 99 TaxiNetwork.node[128] visitedPerTimestep ETV
vector 100 TaxiNetwork.node[68] visitedPerTimestep ETV
vector 101 TaxiNetwork.node[37] visitedPerTimestep ETV
vector 102 TaxiNetwork.node[82] visitedPerTimestep ETV
vector 103 TaxiNetwork.node[22] visitedPerTimestep ETV
vector 104 TaxiNetwork.node[24] visitedPerTimestep ETV
vector 105 TaxiNetwork.node[58] visitedPerTimestep ETV
vector 106 TaxiNetwork.node[74] visitedPerTimestep ETV
vector 107 TaxiNetwork.node[21] visitedPerTimestep ETV
vector 108 TaxiNetwork.node[69] visitedPerTimestep ETV
vector 109 TaxiNetwork.node[80] visitedPerTimestep ETV
vector 110 TaxiNetwork.node[95] visitedPerTimestep ETV
vector 111 TaxiNetwork.node[124] visitedPerTimestep ETV
vector 112 TaxiNetwork.node[130] visitedPerTimestep ETV
vector 113 TaxiNetwork.node[62] visitedPerTimestep ETV
vector 114 TaxiNetwork.node[121] visitedPerTimestep ETV
vector 115 TaxiNetwork.node[65] visitedPerTimestep ETV
vector 116 TaxiNetwork.node[131] visitedPerTimestep ETV
vector 117 TaxiNetwork.node[59] visitedPerTimestep ETV
vector 118 TaxiNetwork.node[76] visitedPerTimestep ETV
vector 119 TaxiNetwork.node[73] visitedPerTimestep ETV
vector 120 TaxiNetwork.node[61] visitedPerTimestep ETV
vector 121 TaxiNetwork.node[77] visitedPerTimestep ETV
vector 122 TaxiNetwork.node[99] visitedPerTimestep ETV
vector 123 TaxiNetwork.node[39] visitedPerTimestep ETV
vector 124 TaxiNetwork.node[40] visitedPerTimestep ETV
vector 125 TaxiNetwork.node[70] visitedPerTimestep ETV
vector 126 TaxiNetwork.node[34] visitedPerTimestep ETV
vector 127 TaxiNetwork.node[75] visitedPerTimestep ETV
vector 128 TaxiNetwork.node[72] visitedPerTimestep ETV
vector 129 TaxiNetwork.node[127] visitedPerTimestep ETV
vector 130 TaxiNetwork.node[78] visitedPerTimestep ETV
vector 131 TaxiNetwork.node[96] visitedPerTimestep ETV
vector 132 TaxiNetwork.node[71] visitedPerTimestep ETV
vector 133 TaxiNetwork.node[25] visitedPerTimestep ETV
vector 134 TaxiNetwork.node[38] visitedPerTimestep ETV
vector 135 TaxiNetwork.node[41] visitedPerTimestep ETV
vector 136 TaxiNetwork.node[42] visitedPerTimestep ETV
vector 137 TaxiNetwork.node[109] visitedPerTimestep ETV
vector 138 TaxiNetwork.node[108] visitedPerTimestep ETV
vector 139 TaxiNetwork.node[23] visitedPerTimestep ETV
vector 140 TaxiNetwork.node[43] visitedPerTimestep ETV
vector 141 TaxiNetwork.node[97] visitedPerTimestep ETV
0	1	0	1
0	36	0	29
0	102	0	68
0	136	0	79
0	157	0	82
0	222	0	90
0	253	0	90
0	296	0	95
0	303	0	95
0	560	0	117
0	609	0	121
0	687	0	121
0	743	0	121
0	762	0	121
0	790	0	123
0	802	0	123
0	885	0	124
0	988	0	126
0	1158	0	127
0	1230	0	127
0	1270	0	127
0	1412	0	131
0	1430	0	131
0	1632	0	134
0	1932	0	135
0	2148	0	135
0	2152	0	135
0	2226	0	135
0	2346	0	135
0	2382	0	135
0	2538	0	138
0	2574	0	138
0	2708	0	138
0	2730	0	138
0	2760	0	138
0	2776	0	138
0	3392	0	142
0	3880	0	142
0	3996	0	142
0	4968	0	142
0	5464	0	142
0	5476	0	142
0	5836	0	142
0	6252	0	143
1	2	0	2
1	108	0	72
1	235	0	90
1	245	0	90
1	399	0	102
1	427	0	105
1	465	0	106
1	498	0	106
1	652	0	121
1	666	0	121
1	749	0	121
1	820	0	123
1	909	0	124
1	920	0	124
1	1144	0	127
1	1156	0	127
1	1712	0	134
1	1792	0	134
1	1938	0	135
1	1954	0	135
1	2128	0	135
1	2416	0	135
1	2536	0	138
1	2952	0	138
1	3008	0	142
1	3068	0	142
1	3248	0	142
1	3736	0	142
1	3968	0	142
1	4232	0	142
1	4936	0	142
1	5104	0	142
1	6060	0	143
1	6132	0	143
1	6604	0	143
1	6620	0	144
2	3	0	3
2	236	0	90
2	308	0	95
2	326	0	95
2	330	0	97
2	376	0	102
2	576	0	118
2	626	0	121
2	766	0	121
2	1012	0	126
2	1214	0	127
2	1802	0	134
2	2234	0	135
2	2392	0	135
2	2710	0	138
2	2728	0	138
2	3204	0	142
2	3252	0	142
2	3300	0	142
2	3460	0	142
2	4016	0	142
2	4960	0	142
2	5160	0	142
2	5168	0	142
2	5432	0	142
2	6080	0	143
2	6200	0	143
2	6208	0	143
2	6444	0	143
3	4	0	4
3	119	0	75
3	121	0	76
3	243	0	90
3	259	0	91
3	262	0	91
3	300	0	95
3	322	0	95
3	404	0	102
3	460	0	106
3	637	0	121
3	689	0	121
3	742	0	121
3	800	0	123
3	856	0	124
3	1042	0	126
3	1216	0	127
3	1396	0	131
3	1424	0	131
3	1718	0	134
3	1764	0	134
3	1816	0	134
3	1866	0	135
3	1924	0	135
3	2038	0	135
3	2168	0	135
3	2446	0	138
3	2612	0	138
3	2868	0	138
3	2894	0	138
3	3440	0	142
3	3732	0	142
3	4020	0	142
3	4184	0	142
3	4388	0	142
3	4780	0	142
3	5156	0	142
3	5272	0	142
3	5320	0	142
3	5888	0	142
3	6272	0	143
3	6700	0	144
4	5	0	5
4	47	0	37
4	260	0	91
4	305	0	95
4	314	0	95
4	401	0	102
4	450	0	106
4	565	0	117
4	583	0	118
4	682	0	121
4	711	0	121
4	756	0	121
4	774	0	121
4	956	0	125
4	1032	0	126
4	1072	0	127
4	1400	0	131
4	1536	0	133
4	1600	0	134
4	1648	0	134
4	1726	0	134
4	2336	0	135
4	2530	0	138
4	2546	0	138
4	2672	0	138
4	2766	0	138
4	2780	0	138
4	2822	0	138
4	2864	0	138
4	2916	0	138
4	3360	0	142
4	4064	0	142
4	4288	0	142
4	4524	0	142
4	4536	0	142
4	5120	0	142
4	5200	0	142
4	5228	0	142
4	5632	0	142
4	6116	0	143
5	6	0	6
5	20	0	18
5	154	0	82
5	169	0	82
5	238	0	90
5	298	0	95
5	488	0	106
5	526	0	108
5	655	0	121
5	679	0	121
5	915	0	124
5	980	0	126
5	1692	0	134
5	1956	0	135
5	2196	0	135
5	2272	0	135
5	2666	0	138
5	3228	0	142
5	3296	0	142
5	3376	0	142
5	3796	0	142
5	4996	0	142
5	5172	0	142
5	5336	0	142
5	5400	0	142
5	5420	0	142
5	5740	0	142
5	5844	0	142
5	5900	0	142
5	6168	0	143
6	7	0	7
6	11	0	10
6	98	0	66
6	168	0	82
6	210	0	88
6	395	0	102
6	474	0	106
6	501	0	106
6	628	0	121
6	702	0	121
6	930	0	124
6	1114	0	127
6	1552	0	134
6	2150	0	135
6	2388	0	135
6	2400	0	135
6	3096	0	142
6	3188	0	142
6	3644	0	142
6	3776	0	142
6	4148	0	142
6	5140	0	142
6	5216	0	142
6	6264	0	143
6	6348	0	143
6	6580	0	143
7	8	0	8
7	28	0	25
7	250	0	90
7	354	0	99
7	424	0	105
7	461	0	106
7	466	0	106
7	469	0	106
7	607	0	121
7	692	0	121
7	713	0	121
7	834	0	123
7	922	0	124
7	1014	0	126
7	1024	0	126
7	1934	0	135
7	2022	0	135
7	2122	0	135
7	2200	0	135
7	2242	0	135
7	2260	0	135
7	2288	0	135
7	2572	0	138
7	2654	0	138
7	2684	0	138
7	2836	0	138
7	2922	0	138
7	2932	0	138
7	2940	0	138
7	3040	0	142
7	3064	0	142
7	3084	0	142
7	3324	0	142
7	3800	0	142
7	3976	0	142
7	4096	0	142
7	5412	0	142
7	6740	0	144
8	9	0	9
8	29	0	25
8	150	0	81
8	212	0	89
8	247	0	90
8	254	0	90
8	416	0	105
8	440	0	105
8	627	0	121
8	714	0	121
8	791	0	123
8	851	0	124
8	932	0	124
8	953	0	125
8	1916	0	135
8	1960	0	135
8	2278	0	135
8	2696	0	138
8	2816	0	138
8	3320	0	142
8	3632	0	142
8	4168	0	142
8	4772	0	142
8	4868	0	142
8	5152	0	142
8	5176	0	142
8	5392	0	142
8	5456	0	142
8	6448	0	143
8	6592	0	143
8	6716	0	144
9	10	0	10
9	483	0	106
9	678	0	121
9	748	0	121
9	811	0	123
9	889	0	124
9	940	0	124
9	1414	0	131
9	1732	0	134
9	1754	0	134
9	2160	0	135
9	2166	0	135
9	2452	0	138
9	2588	0	138
9	3092	0	142
9	3692	0	142
9	3700	0	142
9	3884	0	142
9	4052	0	142
9	4404	0	142
9	5452	0	142
9	5492	0	142
9	5520	0	142
9	5752	0	142
9	6064	0	143
9	6216	0	143
10	12	0	11
10	198	0	88
10	215	0	90
10	294	0	95
10	336	0	99
10	375	0	102
10	382	0	102
10	456	0	106
10	504	0	106
10	514	0	106
10	788	0	123
10	826	0	123
10	917	0	124
10	919	0	124
10	1054	0	126
10	1106	0	127
10	1262	0	127
10	1804	0	134
10	1810	0	134
10	1854	0	134
10	2130	0	135
10	2170	0	135
10	2246	0	135
10	2276	0	135
10	2424	0	135
10	2450	0	138
10	2454	0	138
10	2494	0	138
10	2576	0	138
10	2704	0	138
10	2842	0	138
10	2852	0	138
10	3356	0	142
10	4848	0	142
10	4964	0	142
10	5212	0	142
10	5352	0	142
10	6220	0	143
10	6260	0	143
10	6380	0	143
10	6732	0	144
11	13	0	12
11	79	0	55
11	97	0	66
11	226	0	90
11	525	0	108
11	629	0	121
11	753	0	121
11	846	0	124
11	894	0	124
11	950	0	124
11	1096	0	127
11	1914	0	135
11	1948	0	135
11	2236	0	135
11	2264	0	135
11	2404	0	135
11	2500	0	138
11	2610	0	138
11	2678	0	138
11	2920	0	138
11	3080	0	142
11	3484	0	142
11	3896	0	142
11	4120	0	142
11	5220	0	142
11	5444	0	142
11	5512	0	142
11	6384	0	143
11	6536	0	143
11	6576	0	143
12	14	0	13
12	80	0	55
12	99	0	66
12	138	0	79
12	175	0	83
12	207	0	88
12	246	0	90
12	263	0	91
12	366	0	101
12	396	0	102
12	455	0	106
12	642	0	121
12	663	0	121
12	719	0	121
12	763	0	121
12	923	0	124
12	943	0	124
12	993	0	126
12	1036	0	126
12	1094	0	127
12	1786	0	134
12	1928	0	135
12	2120	0	135
12	2210	0	135
12	2256	0	135
12	2270	0	135
12	2378	0	135
12	2722	0	138
12	2820	0	138
12	2878	0	138
12	2888	0	138
12	3424	0	142
12	3932	0	142
12	4144	0	142
12	4408	0	142
12	4556	0	142
12	4952	0	142
12	5060	0	142
12	5088	0	142
12	5132	0	142
12	5184	0	142
12	5316	0	142
12	5644	0	142
12	6084	0	143
12	6460	0	143
12	6504	0	143
12	6668	0	144
13	15	0	14
13	33	0	27
13	205	0	88
13	1986	0	135
13	1990	0	135
13	2436	0	138
13	2902	0	138
13	3128	0	142
13	3144	0	142
13	3712	0	142
13	4252	0	142
13	4272	0	142
13	4752	0	142
13	5540	0	142
13	6564	0	143
14	16	0	15
14	32	0	27
14	167	0	82
14	216	0	90
14	234	0	90
14	381	0	102
14	415	0	105
14	423	0	105
14	482	0	106
14	508	0	106
14	613	0	121
14	616	0	121
14	746	0	121
14	768	0	121
14	864	0	124
14	882	0	124
14	890	0	124
14	897	0	124
14	910	0	124
14	1082	0	127
14	1140	0	127
14	1276	0	127
14	1706	0	134
14	2104	0	135
14	2124	0	135
14	2140	0	135
14	2380	0	135
14	2414	0	135
14	2460	0	138
14	2486	0	138
14	2754	0	138
14	2768	0	138
14	2914	0	138
14	3380	0	142
14	3412	0	142
14	3684	0	142
14	3780	0	142
14	3788	0	142
14	4208	0	142
14	4384	0	142
14	4564	0	142
14	4840	0	142
14	4872	0	142
14	4912	0	142
14	5012	0	142
14	5804	0	142
14	5824	0	142
14	6512	0	143
14	6556	0	143
15	17	0	16
15	312	0	95
15	337	0	99
15	380	0	102
15	604	0	121
15	644	0	121
15	757	0	121
15	916	0	124
15	933	0	124
15	1116	0	127
15	1178	0	127
15	1194	0	127
15	1280	0	127
15	1378	0	131
15	1556	0	134
15	1774	0	134
15	1820	0	134
15	1860	0	135
15	2030	0	135
15	2188	0	135
15	2488	0	138
15	2496	0	138
15	2648	0	138
15	2818	0	138
15	3016	0	142
15	3244	0	142
15	3768	0	142
15	4024	0	142
15	4876	0	142
15	4900	0	142
15	5052	0	142
15	5376	0	142
15	5552	0	142
15	5676	0	142
15	5760	0	142
15	6112	0	143
15	6124	0	143
15	6140	0	143
15	6292	0	143
15	6468	0	143
16	18	0	17
16	71	0	50
16	76	0	53
16	115	0	74
16	264	0	91
16	292	0	95
16	352	0	99
16	378	0	102
16	385	0	102
16	398	0	102
16	422	0	105
16	434	0	105
16	503	0	106
16	605	0	121
16	635	0	121
16	651	0	121
16	659	0	121
16	676	0	121
16	693	0	121
16	718	0	121
16	764	0	121
16	789	0	123
16	830	0	123
16	961	0	125
16	1080	0	127
16	1432	0	131
16	1636	0	134
16	1830	0	134
16	2492	0	138
16	2652	0	138
16	2662	0	138
16	3088	0	142
16	4164	0	142
16	4308	0	142
16	4744	0	142
16	4812	0	142
16	5180	0	142
16	5408	0	142
17	19	0	18
17	73	0	51
17	160	0	82
17	219	0	90
17	251	0	90
17	478	0	106
17	489	0	106
17	639	0	121
17	661	0	121
17	924	0	124
17	955	0	125
17	1008	0	126
17	1050	0	126
17	1258	0	127
17	1690	0	134
17	1922	0	135
17	1962	0	135
17	2118	0	135
17	2154	0	135
17	2178	0	135
17	2466	0	138
17	2876	0	138
17	3100	0	142
17	3456	0	142
17	3844	0	142
17	4160	0	142
17	5196	0	142
17	5252	0	142
17	5700	0	142
17	6036	0	143
17	6144	0	143
17	6184	0	143
17	6196	0	143
17	6232	0	143
17	6356	0	143
18	21	0	19
18	49	0	38
18	140	0	79
18	299	0	95
18	348	0	99
18	368	0	101
18	432	0	105
18	559	0	117
18	561	0	117
18	582	0	118
18	633	0	121
18	744	0	121
18	759	0	121
18	918	0	124
18	1122	0	127
18	1250	0	127
18	1426	0	131
18	1852	0	134
18	2032	0	135
18	2212	0	135
18	2248	0	135
18	2544	0	138
18	2558	0	138
18	3140	0	142
18	3604	0	142
18	3708	0	142
18	3764	0	142
18	3944	0	142
18	3960	0	142
18	4236	0	142
18	4244	0	142
18	5068	0	142
18	5076	0	142
18	5084	0	142
18	5636	0	142
19	22	0	20
19	129	0	78
19	156	0	82
19	344	0	99
19	363	0	101
19	610	0	121
19	671	0	121
19	887	0	124
19	926	0	124
19	992	0	126
19	1252	0	127
19	1538	0	133
19	1724	0	134
19	1784	0	134
19	1846	0	134
19	2042	0	135
19	2222	0	135
19	2900	0	138
19	3652	0	142
19	3984	0	142
19	5016	0	142
19	5040	0	142
19	5308	0	142
19	5560	0	142
20	23	0	21
20	295	0	95
20	365	0	101
20	403	0	102
20	433	0	105
20	510	0	106
20	696	0	121
20	741	0	121
20	798	0	123
20	928	0	124
20	1254	0	127
20	1264	0	127
20	1382	0	131
20	1434	0	131
20	1438	0	131
20	2444	0	138
20	2762	0	138
20	3136	0	142
20	3740	0	142
20	4040	0	142
20	4748	0	142
20	4776	0	142
20	5128	0	142
20	5312	0	142
20	5404	0	142
20	5468	0	142
20	6332	0	143
20	6560	0	143
21	24	0	22
21	63	0	46
21	94	0	65
21	187	0	86
21	345	0	99
21	387	0	102
21	397	0	102
21	437	0	105
21	569	0	118
21	672	0	121
21	705	0	121
21	758	0	121
21	761	0	121
21	1102	0	127
21	1176	0	127
21	1260	0	127
21	1394	0	131
21	1620	0	134
21	1696	0	134
21	2698	0	138
21	2870	0	138
21	3184	0	142
21	3660	0	142
21	3956	0	142
21	4292	0	142
21	4800	0	142
21	5116	0	142
21	5360	0	142
21	5652	0	142
21	5764	0	142
21	6228	0	143
22	25	0	23
22	249	0	90
22	285	0	94
22	297	0	95
22	1068	0	127
22	1104	0	127
22	1550	0	134
22	1694	0	134
22	1788	0	134
22	2008	0	135
22	2420	0	135
22	2906	0	138
22	3524	0	142
22	4804	0	142
22	5288	0	142
22	6076	0	143
23	26	0	24
23	334	0	99
23	408	0	102
23	468	0	106
23	1902	0	135
23	2262	0	135
23	2658	0	138
23	3344	0	142
23	3520	0	142
23	3804	0	142
23	5504	0	142
23	6532	0	143
23	6544	0	143
24	27	0	25
24	407	0	102
24	836	0	123
24	986	0	126
24	1062	0	126
24	1886	0	135
24	1936	0	135
24	2232	0	135
24	2474	0	138
24	2926	0	138
24	2994	0	142
24	2998	0	142
24	3196	0	142
24	3348	0	142
24	3924	0	142
24	4076	0	142
24	4116	0	142
24	4124	0	142
24	4132	0	142
24	5500	0	142
24	5732	0	142
24	6388	0	143
24	6424	0	143
25	30	0	26
25	69	0	50
25	158	0	82
25	335	0	99
25	353	0	99
25	521	0	107
25	575	0	118
25	706	0	121
25	717	0	121
25	893	0	124
25	1210	0	127
25	1700	0	134
25	1770	0	134
25	1884	0	135
25	1896	0	135
25	1970	0	135
25	2228	0	135
25	2456	0	138
25	2568	0	138
25	2850	0	138
25	3024	0	142
25	4176	0	142
25	4560	0	142
25	4764	0	142
25	4904	0	142
25	5436	0	142
25	5672	0	142
26	31	0	27
26	137	0	79
26	189	0	86
26	288	0	94
26	351	0	99
26	480	0	106
26	499	0	106
26	650	0	121
26	878	0	124
26	1134	0	127
26	1834	0	134
26	1972	0	135
26	1992	0	135
26	2514	0	138
26	3728	0	142
26	3992	0	142
26	4276	0	142
26	4520	0	142
26	4908	0	142
26	5096	0	142
26	5692	0	142
26	6464	0	143
27	34	0	28
27	139	0	79
27	206	0	88
27	266	0	91
27	287	0	94
27	349	0	99
27	509	0	106
27	720	0	121
27	728	0	121
27	877	0	124
27	1994	0	135
27	2006	0	135
27	2560	0	138
27	2910	0	138
27	3596	0	142
27	4212	0	142
27	4412	0	142
28	35	0	29
28	58	0	44
28	114	0	74
28	123	0	77
28	176	0	83
28	192	0	86
28	240	0	90
28	313	0	95
28	339	0	99
28	343	0	99
28	390	0	102
28	436	0	105
28	462	0	106
28	487	0	106
28	558	0	117
28	563	0	117
28	648	0	121
28	821	0	123
28	911	0	124
28	913	0	124
28	1028	0	126
28	1038	0	126
28	1384	0	131
28	1388	0	131
28	1776	0	134
28	1838	0	134
28	1876	0	135
28	1898	0	135
28	2034	0	135
28	2208	0	135
28	2412	0	135
28	2570	0	138
28	2668	0	138
28	2764	0	138
28	3496	0	142
28	4196	0	142
28	4928	0	142
28	5276	0	142
28	5532	0	142
28	5828	0	142
28	6696	0	144
29	37	0	30
29	112	0	73
29	165	0	82
29	173	0	83
29	229	0	90
29	617	0	121
29	668	0	121
29	704	0	121
29	812	0	123
29	883	0	124
29	1200	0	127
29	1236	0	127
29	1688	0	134
29	1722	0	134
29	1758	0	134
29	1778	0	134
29	2112	0	135
29	2116	0	135
29	2462	0	138
29	2594	0	138
29	2718	0	138
29	2810	0	138
29	3232	0	142
29	3372	0	142
29	3428	0	142
29	3500	0	142
29	4180	0	142
29	4824	0	142
29	4888	0	142
29	5048	0	142
29	5324	0	142
29	5460	0	142
29	5784	0	142
29	6068	0	143
30	38	0	31
30	56	0	43
30	67	0	49
30	939	0	124
30	1582	0	134
30	1654	0	134
30	1742	0	134
30	1966	0	135
30	4736	0	142
30	5780	0	142
31	39	0	32
31	594	0	121
31	781	0	122
31	972	0	125
31	1580	0	134
31	1684	0	134
31	1826	0	134
31	5620	0	142
32	40	0	33
32	45	0	37
32	548	0	115
32	586	0	118
32	588	0	118
32	1312	0	129
32	1464	0	131
32	1508	0	132
32	1532	0	133
32	1586	0	134
32	1656	0	134
32	1668	0	134
32	1680	0	134
32	2078	0	135
32	2302	0	135
32	2306	0	135
32	2642	0	138
32	4356	0	142
32	4364	0	142
32	4588	0	142
32	4640	0	142
32	4732	0	142
32	5588	0	142
33	41	0	34
33	430	0	105
33	538	0	113
33	545	0	115
33	547	0	115
33	595	0	121
33	784	0	123
33	967	0	125
33	1348	0	130
33	1506	0	132
33	1530	0	133
33	2048	0	135
33	2296	0	135
33	2548	0	138
33	2788	0	138
33	5600	0	142
33	5860	0	142
33	6324	0	143
34	42	0	35
34	429	0	105
34	785	0	123
34	969	0	125
34	974	0	125
34	1342	0	130
34	1370	0	131
34	2626	0	138
35	43	0	36
35	46	0	37
35	544	0	115
35	603	0	121
35	783	0	123
35	786	0	123
35	1318	0	129
35	1352	0	131
35	1474	0	131
35	1558	0	134
35	1578	0	134
35	1670	0	134
35	1682	0	134
35	2334	0	135
35	2552	0	138
35	6312	0	143
35	6320	0	143
36	44	0	37
36	936	0	124
36	1316	0	129
36	1332	0	129
36	1490	0	131
36	1504	0	132
36	1560	0	134
36	2080	0	135
36	2094	0	135
36	2644	0	138
36	4332	0	142
36	4676	0	142
36	5864	0	142
36	5872	0	142
37	48	0	38
37	50	0	38
37	92	0	64
37	1120	0	127
37	1136	0	127
37	1850	0	134
37	2442	0	138
37	4248	0	142
37	4532	0	142
37	5024	0	142
38	51	0	39
38	359	0	100
38	361	0	101
38	447	0	105
38	601	0	121
38	775	0	121
38	861	0	124
38	976	0	125
38	995	0	126
38	998	0	126
38	1526	0	133
38	1650	0	134
38	2068	0	135
38	5880	0	142
38	6308	0	143
39	52	0	40
39	534	0	113
39	551	0	116
39	602	0	121
39	970	0	125
39	1306	0	129
39	1462	0	131
39	1480	0	131
39	2308	0	135
39	2314	0	135
39	4320	0	142
39	4592	0	142
39	4632	0	142
39	4672	0	142
39	5604	0	142
40	53	0	41
40	1330	0	129
40	1456	0	131
40	1512	0	132
40	2052	0	135
40	2086	0	135
40	2324	0	135
40	2632	0	138
40	2640	0	138
40	4328	0	142
40	4584	0	142
40	4596	0	142
40	4628	0	142
40	4668	0	142
40	5868	0	142
41	54	0	42
41	539	0	113
41	543	0	115
41	550	0	116
41	552	0	116
41	592	0	120
41	596	0	121
41	778	0	121
41	780	0	122
41	964	0	125
41	1182	0	127
41	1300	0	129
41	1308	0	129
41	1494	0	131
41	1510	0	132
41	1572	0	134
41	1674	0	134
41	2318	0	135
41	2636	0	138
41	4336	0	142
41	4348	0	142
41	4580	0	142
41	4620	0	142
41	4696	0	142
42	55	0	43
42	938	0	124
42	965	0	125
42	1326	0	129
42	1584	0	134
42	1746	0	134
42	2054	0	135
42	4656	0	142
42	4728	0	142
42	5580	0	142
43	57	0	44
43	61	0	46
43	70	0	50
43	220	0	90
43	225	0	90
43	237	0	90
43	316	0	95
43	425	0	105
43	573	0	118
43	621	0	121
43	685	0	121
43	904	0	124
43	960	0	125
43	1110	0	127
43	1228	0	127
43	1242	0	127
43	1374	0	131
43	1386	0	131
43	1402	0	131
43	1602	0	134
43	2014	0	135
43	2136	0	135
43	2564	0	138
43	2600	0	138
43	2700	0	138
43	2716	0	138
43	2736	0	138
43	2846	0	138
43	2880	0	138
43	2884	0	138
43	2918	0	138
43	3436	0	142
43	3636	0	142
43	3852	0	142
43	4540	0	142
43	4568	0	142
43	4828	0	142
43	5388	0	142
43	5416	0	142
43	5516	0	142
43	6028	0	143
43	6224	0	143
43	6456	0	143
44	59	0	45
44	62	0	46
44	166	0	82
44	362	0	101
44	367	0	101
44	418	0	105
44	446	0	105
44	493	0	106
44	618	0	121
44	667	0	121
44	697	0	121
44	927	0	124
44	979	0	126
44	994	0	126
44	1056	0	126
44	1112	0	127
44	1714	0	134
44	1812	0	134
44	1832	0	134
44	2126	0	135
44	2158	0	135
44	2518	0	138
44	2806	0	138
44	2824	0	138
44	2892	0	138
44	3284	0	142
44	3508	0	142
44	3772	0	142
44	4844	0	142
44	5144	0	142
44	5304	0	142
44	5472	0	142
44	5548	0	142
44	6100	0	143
44	6344	0	143
44	6648	0	144
44	6712	0	144
44	6728	0	144
45	60	0	46
45	142	0	79
45	163	0	82
45	228	0	90
45	252	0	90
45	341	0	99
45	683	0	121
45	822	0	123
45	1172	0	127
45	1220	0	127
45	1406	0	131
45	1410	0	131
45	1416	0	131
45	1628	0	134
45	1772	0	134
45	1958	0	135
45	1978	0	135
45	2206	0	135
45	2586	0	138
45	2590	0	138
45	2670	0	138
45	2798	0	138
45	2896	0	138
45	3280	0	142
45	3308	0	142
45	3848	0	142
45	4060	0	142
45	4152	0	142
45	4376	0	142
45	4932	0	142
45	5344	0	142
45	5772	0	142
45	6108	0	143
46	64	0	47
46	96	0	66
46	132	0	78
46	248	0	90
46	320	0	95
46	384	0	102
46	614	0	121
46	640	0	121
46	691	0	121
46	701	0	121
46	792	0	123
46	1160	0	127
46	1170	0	127
46	1616	0	134
46	1642	0	134
46	2580	0	138
46	2702	0	138
46	2832	0	138
46	2840	0	138
46	2848	0	138
46	3044	0	142
46	3076	0	142
46	3488	0	142
46	3792	0	142
46	5368	0	142
46	5648	0	142
46	5792	0	142
46	6088	0	143
46	6376	0	143
47	65	0	48
47	127	0	77
47	172	0	83
47	302	0	95
47	307	0	95
47	438	0	105
47	444	0	105
47	557	0	117
47	579	0	118
47	684	0	121
47	850	0	124
47	859	0	124
47	895	0	124
47	1010	0	126
47	1398	0	131
47	1408	0	131
47	1740	0	134
47	1818	0	134
47	2350	0	135
47	2510	0	138
47	2886	0	138
47	3056	0	142
47	3104	0	142
47	3640	0	142
47	4172	0	142
47	4740	0	142
47	5332	0	142
47	5372	0	142
47	6296	0	143
47	6372	0	143
47	6680	0	144
48	66	0	49
48	133	0	78
48	200	0	88
48	203	0	88
48	392	0	102
48	473	0	106
48	619	0	121
48	677	0	121
48	809	0	123
48	819	0	123
48	824	0	123
48	854	0	124
48	857	0	124
48	901	0	124
48	1098	0	127
48	1238	0	127
48	1964	0	135
48	1968	0	135
48	2180	0	135
48	2340	0	135
48	2650	0	138
48	2856	0	138
48	3624	0	142
48	3680	0	142
48	3936	0	142
48	4056	0	142
48	5208	0	142
48	5264	0	142
48	5364	0	142
48	5424	0	142
48	5744	0	142
48	5816	0	142
48	6092	0	143
48	6192	0	143
48	6288	0	143
49	68	0	50
49	202	0	88
49	309	0	95
49	400	0	102
49	808	0	123
49	946	0	124
49	1002	0	126
49	1198	0	127
49	1644	0	134
49	1798	0	134
49	1976	0	135
49	2138	0	135
49	2162	0	135
49	2186	0	135
49	2720	0	138
49	2854	0	138
49	3004	0	142
49	3028	0	142
49	3408	0	142
49	3620	0	142
49	4156	0	142
49	4284	0	142
49	4392	0	142
49	4544	0	142
49	4836	0	142
49	5268	0	142
49	6684	0	144
50	72	0	51
50	170	0	82
50	256	0	90
50	258	0	91
50	554	0	117
50	770	0	121
50	773	0	121
50	849	0	124
50	1824	0	134
50	2364	0	135
50	2368	0	135
50	2372	0	135
50	4296	0	142
50	4372	0	142
50	5340	0	142
50	5892	0	142
51	74	0	52
51	124	0	77
51	159	0	82
51	255	0	90
51	317	0	95
51	388	0	102
51	452	0	106
51	458	0	106
51	484	0	106
51	494	0	106
51	664	0	121
51	673	0	121
51	818	0	123
51	825	0	123
51	925	0	124
51	1006	0	126
51	1030	0	126
51	1646	0	134
51	1736	0	134
51	1762	0	134
51	1840	0	134
51	1862	0	135
51	1930	0	135
51	2164	0	135
51	2384	0	135
51	2484	0	138
51	2724	0	138
51	2778	0	138
51	2860	0	138
51	2872	0	138
51	3312	0	142
51	4008	0	142
51	5300	0	142
51	5524	0	142
51	5556	0	142
51	5776	0	142
51	5788	0	142
51	5896	0	142
51	6044	0	143
51	6340	0	143
51	6452	0	143
51	6588	0	143
51	6660	0	144
52	75	0	53
52	105	0	70
52	117	0	75
52	126	0	77
52	144	0	79
52	241	0	90
52	459	0	106
52	555	0	117
52	570	0	118
52	577	0	118
52	630	0	121
52	674	0	121
52	698	0	121
52	700	0	121
52	710	0	121
52	848	0	124
52	858	0	124
52	944	0	124
52	958	0	125
52	982	0	126
52	1108	0	127
52	1166	0	127
52	1218	0	127
52	1704	0	134
52	1868	0	135
52	2028	0	135
52	2338	0	135
52	2608	0	138
52	2844	0	138
52	2950	0	138
52	3020	0	142
52	3156	0	142
52	3216	0	142
52	3352	0	142
52	3836	0	142
52	3868	0	142
52	3892	0	142
52	4048	0	142
52	4192	0	142
52	4204	0	142
52	4816	0	142
52	6368	0	143
52	6472	0	143
53	77	0	54
53	143	0	79
53	319	0	95
53	338	0	99
53	463	0	106
53	470	0	106
53	476	0	106
53	578	0	118
53	636	0	121
53	675	0	121
53	1164	0	127
53	1274	0	127
53	1822	0	134
53	1926	0	135
53	2366	0	135
53	2592	0	138
53	2748	0	138
53	2784	0	138
53	3108	0	142
53	3492	0	142
53	3752	0	142
53	4304	0	142
53	4796	0	142
53	4940	0	142
53	5056	0	142
53	5440	0	142
53	5660	0	142
53	6212	0	143
54	78	0	55
54	148	0	80
54	227	0	90
54	318	0	95
54	406	0	102
54	475	0	106
54	497	0	106
54	517	0	106
54	520	0	107
54	608	0	121
54	828	0	123
54	1084	0	127
54	1092	0	127
54	1162	0	127
54	2018	0	135
54	2036	0	135
54	2110	0	135
54	2352	0	135
54	2410	0	135
54	2504	0	138
54	2604	0	138
54	3504	0	142
54	3676	0	142
54	3812	0	142
54	3832	0	142
54	3972	0	142
54	4300	0	142
54	4884	0	142
54	5348	0	142
54	5496	0	142
54	5724	0	142
54	5840	0	142
54	6256	0	143
54	6276	0	143
54	6496	0	143
54	6748	0	145
55	81	0	56
55	695	0	121
55	1138	0	127
55	1988	0	135
55	2440	0	138
55	3988	0	142
56	82	0	57
56	90	0	63
56	350	0	99
56	740	0	121
56	866	0	124
56	1836	0	134
56	1996	0	135
56	2904	0	138
56	3600	0	142
56	4416	0	142
56	4488	0	142
56	4516	0	142
57	83	0	58
57	721	0	121
57	725	0	121
57	738	0	121
57	876	0	124
57	3556	0	142
57	3572	0	142
57	4420	0	142
57	4432	0	142
57	4448	0	142
57	4484	0	142
58	84	0	59
58	272	0	92
58	276	0	93
58	278	0	93
58	2000	0	135
58	3568	0	142
58	3588	0	142
58	4456	0	142
58	4472	0	142
58	4508	0	142
59	85	0	60
59	271	0	92
59	280	0	93
59	723	0	121
59	731	0	121
59	737	0	121
59	868	0	124
59	2002	0	135
59	3532	0	142
59	3576	0	142
59	4464	0	142
59	4476	0	142
60	86	0	61
60	284	0	94
60	724	0	121
60	727	0	121
60	732	0	121
60	734	0	121
60	739	0	121
60	867	0	124
60	870	0	124
60	1998	0	135
60	2908	0	138
60	3528	0	142
60	4216	0	142
60	4424	0	142
60	4436	0	142
60	4512	0	142
61	87	0	62
61	89	0	63
61	275	0	93
61	286	0	94
61	729	0	121
61	1066	0	127
61	2004	0	135
61	3536	0	142
61	4220	0	142
61	4492	0	142
61	4500	0	142
62	88	0	63
62	268	0	92
62	270	0	92
62	273	0	92
62	282	0	93
62	722	0	121
62	733	0	121
62	872	0	124
62	874	0	124
62	3540	0	142
62	3548	0	142
62	3564	0	142
62	3584	0	142
62	4428	0	142
62	4460	0	142
62	4468	0	142
63	91	0	64
63	1076	0	127
63	1132	0	127
63	2438	0	138
63	3132	0	142
63	4036	0	142
63	5028	0	142
64	93	0	65
64	109	0	72
64	130	0	78
64	293	0	95
64	449	0	106
64	801	0	123
64	899	0	124
64	1440	0	131
64	1878	0	135
64	1984	0	135
64	2040	0	135
64	2434	0	138
64	2774	0	138
64	3012	0	142
64	5100	0	142
64	5124	0	142
64	5484	0	142
64	6056	0	143
64	6652	0	144
65	95	0	66
65	155	0	82
65	183	0	86
65	208	0	88
65	261	0	91
65	289	0	94
65	485	0	106
65	643	0	121
65	653	0	121
65	853	0	124
65	947	0	124
65	981	0	126
65	1070	0	127
65	1142	0	127
65	1638	0	134
65	1842	0	134
65	1872	0	135
65	2132	0	135
65	2252	0	135
65	2470	0	138
65	2616	0	138
65	2782	0	138
65	3236	0	142
65	3452	0	142
65	3696	0	142
65	3816	0	142
65	3840	0	142
65	3856	0	142
65	4552	0	142
65	5000	0	142
65	5396	0	142
65	5748	0	142
65	5756	0	142
65	6052	0	143
65	6188	0	143
65	6584	0	143
65	6704	0	144
65	6724	0	144
66	100	0	67
66	110	0	72
66	152	0	81
66	179	0	85
66	244	0	90
66	265	0	91
66	306	0	95
66	421	0	105
66	479	0	106
66	495	0	106
66	502	0	106
66	686	0	121
66	810	0	123
66	831	0	123
66	855	0	124
66	884	0	124
66	1026	0	126
66	1168	0	127
66	1418	0	131
66	1870	0	135
66	1982	0	135
66	2144	0	135
66	2198	0	135
66	2342	0	135
66	2348	0	135
66	2360	0	135
66	2490	0	138
66	2804	0	138
66	3072	0	142
66	3432	0	142
66	3760	0	142
66	3948	0	142
66	4280	0	142
66	4756	0	142
66	4792	0	142
66	5148	0	142
66	6096	0	143
66	6336	0	143
66	6568	0	143
66	6644	0	144
66	6672	0	144
66	6708	0	144
67	101	0	68
67	402	0	102
67	566	0	117
67	694	0	121
67	760	0	121
67	863	0	124
67	886	0	124
67	1074	0	127
67	1078	0	127
67	1428	0	131
67	1542	0	133
67	2146	0	135
67	2216	0	135
67	2344	0	135
67	2432	0	138
67	2516	0	138
67	2524	0	138
67	2912	0	138
67	3124	0	142
67	3720	0	142
67	4240	0	142
67	4256	0	142
67	5536	0	142
67	6160	0	143
68	103	0	69
68	291	0	95
68	310	0	95
68	346	0	99
68	405	0	102
68	646	0	121
68	776	0	121
68	787	0	123
68	962	0	125
68	1000	0	126
68	1196	0	127
68	1652	0	134
68	1686	0	134
68	1752	0	134
68	1828	0	134
68	2192	0	135
68	2428	0	137
68	2828	0	138
68	3860	0	142
68	4856	0	142
68	5240	0	142
68	5328	0	142
68	5768	0	142
68	6048	0	143
68	6244	0	143
68	6304	0	143
68	6360	0	143
69	104	0	70
69	186	0	86
69	304	0	95
69	356	0	99
69	426	0	105
69	496	0	106
69	654	0	121
69	715	0	121
69	806	0	123
69	852	0	124
69	921	0	124
69	987	0	126
69	1240	0	127
69	1392	0	131
69	1618	0	134
69	1622	0	134
69	1708	0	134
69	1796	0	134
69	2134	0	135
69	2190	0	135
69	2230	0	135
69	2258	0	135
69	2418	0	135
69	2472	0	138
69	2498	0	138
69	2674	0	138
69	2944	0	138
69	3512	0	142
69	4228	0	142
69	4860	0	142
69	4896	0	142
69	4924	0	142
69	4992	0	142
69	5008	0	142
69	6608	0	144
69	6720	0	144
69	6736	0	144
70	106	0	71
70	196	0	88
70	223	0	90
70	383	0	102
70	443	0	105
70	454	0	106
70	472	0	106
70	500	0	106
70	606	0	121
70	681	0	121
70	900	0	124
70	914	0	124
70	1034	0	126
70	1248	0	127
70	1974	0	135
70	1980	0	135
70	2362	0	135
70	2556	0	138
70	2664	0	138
70	2706	0	138
70	2714	0	138
70	2834	0	138
70	3060	0	142
70	3220	0	142
70	3888	0	142
70	5136	0	142
70	5260	0	142
70	5716	0	142
70	5820	0	142
70	6040	0	143
70	6152	0	143
70	6552	0	143
70	6656	0	144
71	107	0	72
71	162	0	82
71	224	0	90
71	370	0	101
71	372	0	102
71	374	0	102
71	393	0	102
71	417	0	105
71	507	0	106
71	707	0	121
71	795	0	123
71	804	0	123
71	891	0	124
71	907	0	124
71	959	0	125
71	990	0	126
71	1018	0	126
71	1086	0	127
71	1272	0	127
71	1404	0	131
71	1864	0	135
71	2020	0	135
71	2376	0	135
71	2482	0	138
71	2578	0	138
71	2584	0	138
71	3336	0	142
71	3388	0	142
71	4548	0	142
71	5256	0	142
71	5832	0	142
71	6136	0	143
71	6640	0	144
72	111	0	73
72	125	0	77
72	161	0	82
72	184	0	86
72	195	0	88
72	218	0	90
72	340	0	99
72	364	0	101
72	556	0	117
72	564	0	117
72	580	0	118
72	703	0	121
72	888	0	124
72	896	0	124
72	898	0	124
72	957	0	125
72	1048	0	126
72	1100	0	127
72	1222	0	127
72	1234	0	127
72	1266	0	127
72	1442	0	131
72	2108	0	135
72	2174	0	135
72	2182	0	135
72	2194	0	135
72	2224	0	135
72	2354	0	135
72	2430	0	138
72	2602	0	138
72	2800	0	138
72	4768	0	142
72	4788	0	142
72	6072	0	143
73	113	0	74
73	131	0	78
73	145	0	79
73	209	0	88
73	369	0	101
73	439	0	105
73	481	0	106
73	632	0	121
73	641	0	121
73	660	0	121
73	754	0	121
73	765	0	121
73	797	0	123
73	805	0	123
73	817	0	123
73	929	0	124
73	1004	0	126
73	1052	0	126
73	1058	0	126
73	1208	0	127
73	1546	0	134
73	1604	0	134
73	1624	0	134
73	1702	0	134
73	1760	0	134
73	1768	0	134
73	2292	0	135
73	2532	0	138
73	2582	0	138
73	2866	0	138
73	3032	0	142
73	3048	0	142
73	3208	0	142
73	3608	0	142
73	3616	0	142
73	3876	0	142
73	4068	0	142
73	4200	0	142
73	4820	0	142
73	5188	0	142
73	5380	0	142
73	5808	0	142
73	6508	0	143
73	6664	0	144
74	116	0	75
74	118	0	75
74	180	0	85
74	182	0	86
74	188	0	86
74	239	0	90
74	656	0	121
74	794	0	123
74	1640	0	134
74	1900	0	135
74	1952	0	135
74	2274	0	135
74	2506	0	138
74	2660	0	138
74	2946	0	138
74	2954	0	138
74	4224	0	142
74	5004	0	142
74	5108	0	142
74	6500	0	143
74	6600	0	143
75	120	0	76
75	191	0	86
75	379	0	102
75	634	0	121
75	881	0	124
75	1040	0	126
75	1128	0	127
75	1420	0	131
75	1716	0	134
75	1874	0	135
75	2106	0	135
75	2142	0	135
75	2526	0	138
75	2622	0	138
75	2752	0	138
75	3120	0	142
75	3148	0	142
75	3240	0	142
75	3444	0	142
75	3716	0	142
75	5032	0	142
75	5072	0	142
76	122	0	77
76	135	0	79
76	141	0	79
76	217	0	90
76	321	0	95
76	491	0	106
76	581	0	118
76	670	0	121
76	747	0	121
76	793	0	123
76	799	0	123
76	803	0	123
76	807	0	123
76	823	0	123
76	903	0	124
76	942	0	124
76	945	0	124
76	1124	0	127
76	1256	0	127
76	2044	0	135
76	2408	0	135
76	2448	0	138
76	2520	0	138
76	2732	0	138
76	3628	0	142
76	3648	0	142
76	3704	0	142
76	3724	0	142
76	3756	0	142
76	3940	0	142
76	3980	0	142
76	4948	0	142
76	5244	0	142
76	5488	0	142
76	5656	0	142
76	6156	0	143
76	6164	0	143
77	128	0	78
77	199	0	88
77	221	0	90
77	230	0	90
77	464	0	106
77	511	0	106
77	527	0	108
77	647	0	121
77	941	0	124
77	978	0	126
77	1372	0	131
77	1422	0	131
77	1446	0	131
77	1596	0	134
77	2046	0	135
77	2100	0	135
77	2370	0	135
77	2468	0	138
77	2542	0	138
77	2786	0	138
77	2796	0	138
77	2802	0	138
77	2898	0	138
77	3052	0	142
77	3400	0	142
77	4004	0	142
77	4312	0	142
77	4572	0	142
77	5236	0	142
77	5564	0	142
77	5680	0	142
77	5856	0	142
77	6180	0	143
77	6612	0	144
78	134	0	79
78	147	0	80
78	201	0	88
78	213	0	89
78	355	0	99
78	377	0	102
78	445	0	105
78	574	0	118
78	709	0	121
78	745	0	121
78	832	0	123
78	989	0	126
78	991	0	126
78	1380	0	131
78	1634	0	134
78	1720	0	134
78	1728	0	134
78	1880	0	135
78	1920	0	135
78	2176	0	135
78	2464	0	138
78	2522	0	138
78	2596	0	138
78	2726	0	138
78	2750	0	138
78	2758	0	138
78	2808	0	138
78	2890	0	138
78	2942	0	138
78	3116	0	142
78	3288	0	142
78	3656	0	142
78	3672	0	142
78	4000	0	142
78	4400	0	142
78	4808	0	142
78	4988	0	142
78	5044	0	142
78	5528	0	142
78	5800	0	142
78	6236	0	143
79	146	0	80
79	151	0	81
79	164	0	82
79	174	0	83
79	233	0	90
79	373	0	102
79	515	0	106
79	572	0	118
79	631	0	121
79	813	0	123
79	827	0	123
79	833	0	123
79	931	0	124
79	1016	0	126
79	1232	0	127
79	1246	0	127
79	1808	0	134
79	1856	0	135
79	2114	0	135
79	2406	0	135
79	2562	0	138
79	2682	0	138
79	2992	0	142
79	3212	0	142
79	3276	0	142
79	3292	0	142
79	3384	0	142
79	3516	0	142
79	3664	0	142
79	3928	0	142
79	4136	0	142
79	4944	0	142
79	5356	0	142
79	5384	0	142
79	5668	0	142
79	5736	0	142
79	5848	0	142
79	6636	0	144
79	6692	0	144
80	149	0	81
80	197	0	88
80	325	0	95
80	414	0	105
80	442	0	105
80	467	0	106
80	477	0	106
80	490	0	106
80	622	0	121
80	751	0	121
80	767	0	121
80	905	0	124
80	912	0	124
80	948	0	124
80	1060	0	126
80	1244	0	127
80	1268	0	127
80	1710	0	134
80	1918	0	135
80	2244	0	135
80	2356	0	135
80	2422	0	135
80	2458	0	138
80	2686	0	138
80	3180	0	142
80	3332	0	142
80	3420	0	142
80	3668	0	142
80	3820	0	142
80	4012	0	142
80	4100	0	142
80	4108	0	142
80	4188	0	142
80	4984	0	142
80	5192	0	142
80	5292	0	142
80	5428	0	142
80	5720	0	142
80	5904	0	142
80	6148	0	143
80	6268	0	143
80	6548	0	143
81	153	0	82
81	190	0	86
81	204	0	88
81	242	0	90
81	324	0	95
81	389	0	102
81	441	0	105
81	513	0	106
81	562	0	117
81	611	0	121
81	657	0	121
81	829	0	123
81	1046	0	126
81	1544	0	134
81	1548	0	134
81	1698	0	134
81	1782	0	134
81	1806	0	134
81	2184	0	135
81	2358	0	135
81	2508	0	138
81	2528	0	138
81	2618	0	138
81	2770	0	138
81	2812	0	138
81	3416	0	142
81	4044	0	142
81	4380	0	142
81	4760	0	142
81	4920	0	142
81	5112	0	142
81	5284	0	142
81	5296	0	142
81	5664	0	142
81	6128	0	143
81	6248	0	143
81	6616	0	144
82	171	0	83
82	231	0	90
82	419	0	105
82	453	0	106
82	457	0	106
82	492	0	106
82	615	0	121
82	662	0	121
82	665	0	121
82	669	0	121
82	708	0	121
82	712	0	121
82	755	0	121
82	769	0	121
82	902	0	124
82	908	0	124
82	949	0	124
82	1174	0	127
82	1376	0	131
82	1626	0	134
82	1738	0	134
82	1800	0	134
82	1882	0	135
82	2290	0	135
82	2374	0	135
82	2598	0	138
82	2712	0	138
82	2826	0	138
82	2830	0	138
82	2990	0	142
82	3328	0	142
82	3396	0	142
82	4852	0	142
82	4880	0	142
82	5164	0	142
82	5204	0	142
82	5448	0	142
82	5704	0	142
82	5796	0	142
82	6032	0	143
82	6280	0	143
82	6300	0	143
82	6352	0	143
82	6676	0	144
83	177	0	84
83	185	0	86
83	232	0	90
83	301	0	95
83	420	0	105
83	451	0	106
83	680	0	121
83	983	0	126
83	1146	0	127
83	1598	0	134
83	1630	0	134
83	1730	0	134
83	1790	0	134
83	2202	0	135
83	2614	0	138
83	2862	0	138
83	3224	0	142
83	3304	0	142
83	3368	0	142
83	4072	0	142
83	4112	0	142
83	4140	0	142
83	4784	0	142
83	4972	0	142
83	5224	0	142
83	5852	0	142
83	6240	0	143
83	6364	0	143
83	6520	0	143
83	6596	0	143
84	178	0	85
84	315	0	95
84	342	0	99
84	391	0	102
84	471	0	106
84	512	0	106
84	612	0	121
84	690	0	121
84	716	0	121
84	892	0	124
84	954	0	125
84	1390	0	131
84	1766	0	134
84	1794	0	134
84	1858	0	135
84	2172	0	135
84	2204	0	135
84	2540	0	138
84	2756	0	138
84	2814	0	138
84	2858	0	138
84	3316	0	142
84	3688	0	142
84	4832	0	142
84	5712	0	142
84	6104	0	143
84	6516	0	143
84	6572	0	143
84	6688	0	144
85	181	0	86
85	505	0	106
85	750	0	121
85	796	0	123
85	816	0	123
85	1090	0	127
85	1148	0	127
85	1606	0	134
85	1942	0	135
85	2268	0	135
85	2390	0	135
85	2502	0	138
85	2534	0	138
85	2694	0	138
85	3036	0	142
85	3256	0	142
85	3612	0	142
85	3900	0	142
85	4864	0	142
85	4956	0	142
85	4976	0	142
85	5508	0	142
85	6624	0	144
86	193	0	87
86	649	0	121
86	865	0	124
86	2620	0	138
86	2772	0	138
86	4916	0	142
86	5280	0	142
87	194	0	88
87	568	0	118
87	862	0	124
87	879	0	124
87	1204	0	127
87	1278	0	127
87	1436	0	131
87	1844	0	134
87	2102	0	135
87	2220	0	135
87	2250	0	135
87	2740	0	138
87	2744	0	138
87	3744	0	142
87	3784	0	142
87	4028	0	142
87	4268	0	142
87	4528	0	142
87	5544	0	142
87	6120	0	143
88	211	0	89
88	327	0	95
88	331	0	97
88	413	0	105
88	522	0	107
88	625	0	121
88	2688	0	138
88	2838	0	138
88	2964	0	138
88	3476	0	142
88	4128	0	142
88	6204	0	143
88	6428	0	143
88	6436	0	143
89	214	0	90
89	347	0	99
89	357	0	99
89	428	0	105
89	431	0	105
89	435	0	105
89	486	0	106
89	584	0	118
89	620	0	121
89	645	0	121
89	1044	0	126
89	1118	0	127
89	1126	0	127
89	1226	0	127
89	1444	0	131
89	1780	0	134
89	2218	0	135
89	2254	0	135
89	2294	0	135
89	2512	0	138
89	2554	0	138
89	2624	0	138
89	2734	0	138
89	2738	0	138
89	2746	0	138
89	3112	0	142
89	3364	0	142
89	3404	0	142
89	3748	0	142
89	3872	0	142
89	4396	0	142
89	4892	0	142
89	5020	0	142
89	5080	0	142
89	5092	0	142
89	5248	0	142
89	5480	0	142
89	5688	0	142
89	5708	0	142
89	5884	0	142
89	6172	0	143
89	6328	0	143
90	257	0	91
90	587	0	118
90	772	0	121
90	4344	0	142
90	4708	0	142
90	4716	0	142
91	267	0	92
91	269	0	92
91	279	0	93
91	3560	0	142
91	3580	0	142
91	3592	0	142
91	4444	0	142
91	4480	0	142
91	4504	0	142
92	274	0	93
92	277	0	93
92	281	0	93
92	730	0	121
92	736	0	121
92	869	0	124
92	871	0	124
92	875	0	124
92	3552	0	142
92	4440	0	142
92	4452	0	142
92	4496	0	142
93	283	0	94
93	726	0	121
93	735	0	121
93	873	0	124
93	3544	0	142
94	290	0	95
94	311	0	95
94	323	0	95
94	386	0	102
94	638	0	121
94	658	0	121
94	688	0	121
94	860	0	124
94	1202	0	127
94	1206	0	127
94	1224	0	127
94	1554	0	134
94	1734	0	134
94	1756	0	134
94	1814	0	134
94	2156	0	135
94	2386	0	135
94	2426	0	136
94	2566	0	138
94	2874	0	138
94	3152	0	142
94	3448	0	142
94	3864	0	142
94	3952	0	142
94	3964	0	142
94	5064	0	142
94	5640	0	142
94	5696	0	142
94	5812	0	142
94	6284	0	143
95	328	0	96
95	394	0	102
95	519	0	107
95	699	0	121
95	840	0	124
95	847	0	124
95	1022	0	126
95	1150	0	127
95	1154	0	127
95	1610	0	134
95	1614	0	134
95	2010	0	135
95	2282	0	135
95	2948	0	138
95	3200	0	142
95	3808	0	142
95	5728	0	142
95	6476	0	143
95	6524	0	143
96	329	0	97
96	623	0	121
96	752	0	121
96	985	0	126
96	1890	0	135
96	1904	0	135
96	1946	0	135
96	2476	0	138
96	2692	0	138
96	2930	0	138
96	3176	0	142
96	3464	0	142
96	3472	0	142
96	3480	0	142
96	4980	0	142
96	5908	0	142
96	6440	0	143
97	332	0	98
97	412	0	105
97	844	0	124
97	2968	0	138
97	3168	0	142
97	3912	0	142
97	5916	0	142
98	333	0	99
98	2284	0	135
98	2396	0	135
98	2962	0	138
98	3164	0	142
98	6400	0	143
98	6412	0	143
98	6628	0	144
99	358	0	100
99	541	0	114
99	963	0	125
99	1180	0	127
99	1310	0	129
99	1346	0	130
99	1368	0	131
99	1468	0	131
99	1534	0	133
99	2304	0	135
99	2794	0	138
99	4700	0	142
99	5592	0	142
99	5684	0	142
99	5876	0	142
100	360	0	101
100	535	0	113
100	546	0	115
100	935	0	124
100	1302	0	129
100	1324	0	129
100	1360	0	131
100	1366	0	131
100	1476	0	131
100	1492	0	131
100	1590	0	134
100	1662	0	134
100	2062	0	135
100	2316	0	135
100	2628	0	138
101	371	0	102
101	506	0	106
101	523	0	107
101	814	0	123
101	1020	0	126
101	2240	0	135
101	2280	0	135
101	2394	0	135
101	2402	0	135
101	2480	0	138
101	2934	0	138
101	2958	0	138
101	3000	0	142
101	6392	0	143
101	6420	0	143
102	409	0	103
102	516	0	106
102	571	0	118
102	839	0	124
102	842	0	124
102	984	0	126
102	1088	0	127
102	1894	0	135
102	1940	0	135
102	1944	0	135
102	2026	0	135
102	2286	0	135
102	2398	0	135
102	2606	0	138
102	2676	0	138
102	2936	0	138
102	2956	0	138
102	2960	0	138
102	3160	0	142
102	3468	0	142
102	3828	0	142
102	4092	0	142
102	6432	0	143
102	6492	0	143
103	410	0	104
103	624	0	121
103	815	0	123
103	835	0	123
103	845	0	124
103	951	0	124
103	1608	0	134
103	1888	0	135
103	2024	0	135
103	2924	0	138
103	2928	0	138
103	3904	0	142
103	3920	0	142
103	4084	0	142
104	411	0	105
104	841	0	124
104	843	0	124
104	1612	0	134
104	2478	0	138
104	2690	0	138
104	3260	0	142
104	3908	0	142
104	3916	0	142
105	448	0	106
105	975	0	125
105	4264	0	142
105	5036	0	142
106	518	0	107
106	906	0	124
106	2012	0	135
106	2016	0	135
106	2882	0	138
106	2938	0	138
106	2988	0	142
106	3824	0	142
106	4104	0	142
106	6024	0	143
106	6480	0	143
106	6488	0	143
106	6744	0	144
107	524	0	108
107	838	0	124
107	1906	0	135
107	1910	0	135
107	2966	0	138
107	3264	0	142
107	4080	0	142
107	5912	0	142
107	6528	0	143
107	6540	0	143
108	528	0	109
108	536	0	113
108	937	0	124
108	1186	0	127
108	1284	0	127
108	1450	0	131
108	1458	0	131
108	1470	0	131
108	1594	0	134
108	4316	0	142
108	5572	0	142
108	5596	0	142
109	529	0	110
109	537	0	113
109	1472	0	131
109	1522	0	133
109	1528	0	133
109	1566	0	134
109	2064	0	135
109	2310	0	135
109	4648	0	142
110	530	0	111
110	2312	0	135
111	531	0	112
111	533	0	113
112	532	0	113
112	934	0	124
112	1282	0	127
112	1334	0	129
112	1344	0	130
112	1452	0	131
112	1524	0	133
112	1568	0	134
112	1588	0	134
112	1666	0	134
112	2070	0	135
112	4636	0	142
112	5232	0	142
112	6176	0	143
113	540	0	114
113	589	0	118
113	597	0	121
113	599	0	121
113	966	0	125
113	1290	0	127
113	1320	0	129
113	1454	0	131
113	2050	0	135
113	2072	0	135
113	2090	0	135
113	2326	0	135
113	2330	0	135
113	2638	0	138
113	4340	0	142
113	4600	0	142
113	4712	0	142
113	5608	0	142
113	5616	0	142
114	542	0	115
114	777	0	121
114	997	0	126
114	1190	0	127
114	1354	0	131
114	1562	0	134
114	1574	0	134
114	1664	0	134
114	1676	0	134
114	2332	0	135
114	2792	0	138
114	4324	0	142
114	4360	0	142
114	4368	0	142
114	4704	0	142
114	4720	0	142
114	5584	0	142
115	549	0	116
115	771	0	121
115	1744	0	134
116	553	0	117
116	585	0	118
116	968	0	125
116	971	0	125
116	999	0	126
116	1184	0	127
116	1192	0	127
116	1340	0	130
116	1672	0	134
116	1750	0	134
116	2066	0	135
116	2096	0	135
116	2328	0	135
116	2550	0	138
116	2646	0	138
116	4576	0	142
116	6316	0	143
117	567	0	118
117	880	0	124
117	1130	0	127
117	1540	0	133
117	1848	0	134
117	2214	0	135
117	2742	0	138
117	4032	0	142
117	4260	0	142
118	590	0	119
118	1288	0	127
118	1292	0	127
118	1516	0	132
118	4604	0	142
118	4612	0	142
118	4680	0	142
119	591	0	120
119	598	0	121
119	1286	0	127
119	1488	0	131
119	1660	0	134
119	4660	0	142
119	4688	0	142
120	593	0	121
120	600	0	121
120	996	0	126
120	1592	0	134
120	5624	0	142
121	779	0	122
121	1364	0	131
121	1502	0	132
121	1658	0	134
121	2060	0	135
121	2082	0	135
121	4616	0	142
122	782	0	123
122	973	0	125
122	1188	0	127
122	1304	0	129
122	1314	0	129
122	1338	0	130
122	1448	0	131
122	1466	0	131
122	1570	0	134
122	1576	0	134
122	2098	0	135
122	2298	0	135
122	5628	0	142
123	837	0	124
123	1908	0	135
123	1912	0	135
123	2238	0	135
123	2680	0	138
123	3172	0	142
123	3268	0	142
123	6396	0	143
123	6408	0	143
123	6416	0	143
123	6632	0	144
124	952	0	125
124	1152	0	127
124	1212	0	127
124	3192	0	142
124	3272	0	142
124	3340	0	142
124	4088	0	142
124	6404	0	143
125	977	0	126
125	1336	0	130
125	1358	0	131
125	1482	0	131
125	1564	0	134
125	2076	0	135
125	2300	0	135
125	2322	0	135
125	2630	0	138
125	2790	0	138
125	4352	0	142
125	5568	0	142
126	1064	0	127
126	1892	0	135
126	1950	0	135
126	2266	0	135
126	2656	0	138
126	2996	0	142
127	1294	0	128
127	1298	0	129
127	1322	0	129
127	1362	0	131
127	1460	0	131
127	1478	0	131
127	1484	0	131
127	1520	0	133
127	1678	0	134
127	2056	0	135
127	2634	0	138
127	4624	0	142
127	4644	0	142
127	4652	0	142
127	4664	0	142
127	4684	0	142
127	4724	0	142
128	1296	0	129
128	1328	0	129
128	1356	0	131
128	1486	0	131
128	1514	0	132
128	1748	0	134
128	2074	0	135
128	2084	0	135
128	2088	0	135
128	2092	0	135
128	2320	0	135
128	4692	0	142
128	5576	0	142
128	5612	0	142
129	1350	0	131
130	1496	0	131
130	1500	0	132
130	2058	0	135
131	1498	0	132
132	1518	0	133
132	4608	0	142
133	2970	0	139
133	2974	0	139
133	5920	0	142
133	5928	0	142
134	2972	0	139
134	2978	0	140
134	5948	0	143
135	2976	0	140
135	2984	0	142
135	5932	0	142
135	5980	0	143
135	6000	0	143
136	2980	0	141
136	6008	0	143
136	6016	0	143
137	2982	0	142
137	5940	0	143
137	5956	0	143
137	5972	0	143
137	5992	0	143
137	6004	0	143
138	2986	0	142
138	5944	0	143
138	5952	0	143
138	5964	0	143
138	5984	0	143
138	6020	0	143
139	5924	0	142
140	5936	0	143
140	5960	0	143
140	5968	0	143
140	5976	0	143
140	5988	0	143
140	5996	0	143
140	6012	0	143
141	6484	0	143

