file 56324 1756984398                                           
version 3
run General-224-20250904-14:13:18-15574
attr configname General
attr datetime 20250904-14:13:18
attr datetimef 20250904-141318
attr experiment General
attr inifile omnetpp.ini
attr iterationvars ""
attr iterationvarsd ""
attr iterationvarsf ""
attr measurement ""
attr network TaxiNetwork
attr processid 15574
attr repetition 224
attr replication #224
attr resultdir results
attr runnumber 224
attr seedset 224
config network TaxiNetwork
config seed-set 224
config num-rngs 1
config sim-time-limit 10s
config repeat 500
config *.numWalkers 1
config *.enableDuplication true
config *.rc 700
config **.node[0].xCor 2933
config **.node[0].yCor 2747
config **.node[1].xCor 2919
config **.node[1].yCor 2817
config **.node[2].xCor 2910
config **.node[2].yCor 2861
config **.node[3].xCor 2429
config **.node[3].yCor 2851
config **.node[4].xCor 2908
config **.node[4].yCor 2714
config **.node[5].xCor 2606
config **.node[5].yCor 2722
config **.node[6].xCor 2575
config **.node[6].yCor 2753
config **.node[7].xCor 2654
config **.node[7].yCor 2513
config **.node[8].xCor 2773
config **.node[8].yCor 2580
config **.node[9].xCor 3043
config **.node[9].yCor 2780
config **.node[10].xCor 3020
config **.node[10].yCor 2813
config **.node[11].xCor 2599
config **.node[11].yCor 2300
config **.node[12].xCor 2917
config **.node[12].yCor 2698
config **.node[13].xCor 2625
config **.node[13].yCor 2641
config **.node[14].xCor 2604
config **.node[14].yCor 2790
config **.node[15].xCor 2786
config **.node[15].yCor 3082
config **.node[16].xCor 2603
config **.node[16].yCor 2802
config **.node[17].xCor 2637
config **.node[17].yCor 2869
config **.node[18].xCor 2675
config **.node[18].yCor 2955
config **.node[19].xCor 2845
config **.node[19].yCor 2937
config **.node[20].xCor 2860
config **.node[20].yCor 2888
config **.node[21].xCor 2843
config **.node[21].yCor 4158
config **.node[22].xCor 2852
config **.node[22].yCor 4017
config **.node[23].xCor 2892
config **.node[23].yCor 4961
config **.node[24].xCor 2313
config **.node[24].yCor 3993
config **.node[25].xCor 2891
config **.node[25].yCor 4959
config **.node[26].xCor 2370
config **.node[26].yCor 4050
config **.node[27].xCor 2788
config **.node[27].yCor 3958
config **.node[28].xCor 2819
config **.node[28].yCor 4428
config **.node[29].xCor 2790
config **.node[29].yCor 3761
config **.node[30].xCor 2809
config **.node[30].yCor 2908
config **.node[31].xCor 2919
config **.node[31].yCor 3575
config **.node[32].xCor 2946
config **.node[32].yCor 3466
config **.node[33].xCor 2911
config **.node[33].yCor 3453
config **.node[34].xCor 2370
config **.node[34].yCor 3656
config **.node[35].xCor 2438
config **.node[35].yCor 3738
config **.node[36].xCor 2737
config **.node[36].yCor 3570
config **.node[37].xCor 2921
config **.node[37].yCor 3698
config **.node[38].xCor 2907
config **.node[38].yCor 5197
config **.node[39].xCor 2860
config **.node[39].yCor 3852
config **.node[40].xCor 2927
config **.node[40].yCor 3684
config **.node[41].xCor 3023
config **.node[41].yCor 5313
config **.node[42].xCor 3220
config **.node[42].yCor 5811
config **.node[43].xCor 3432
config **.node[43].yCor 5715
config **.node[44].xCor 2754
config **.node[44].yCor 2463
config **.node[45].xCor 2646
config **.node[45].yCor 2673
config **.node[46].xCor 3051
config **.node[46].yCor 2792
config **.node[47].xCor 1666
config **.node[47].yCor 3697
config **.node[48].xCor 1662
config **.node[48].yCor 3694
config **.node[49].xCor 1664
config **.node[49].yCor 3667
config **.node[50].xCor 1660
config **.node[50].yCor 3664
config **.node[51].xCor 1710
config **.node[51].yCor 3573
config **.node[52].xCor 2082
config **.node[52].yCor 2650
config **.node[53].xCor 2086
config **.node[53].yCor 2657
config **.node[54].xCor 2257
config **.node[54].yCor 3232
config **.node[55].xCor 2258
config **.node[55].yCor 3225
config **.node[56].xCor 1926
config **.node[56].yCor 2570
config **.node[57].xCor 1926
config **.node[57].yCor 2576
config **.node[58].xCor 2104
config **.node[58].yCor 1758
config **.node[59].xCor 1957
config **.node[59].yCor 1826
config **.node[60].xCor 3473
config **.node[60].yCor 1523
config **.node[61].xCor 3335
config **.node[61].yCor 1726
config **.node[62].xCor 3478
config **.node[62].yCor 1517
config **.node[63].xCor 3386
config **.node[63].yCor 2119
config **.node[64].xCor 3474
config **.node[64].yCor 1762
config **.node[65].xCor 3797
config **.node[65].yCor 2099
config **.node[66].xCor 3642
config **.node[66].yCor 2136
config **.node[67].xCor 3481
config **.node[67].yCor 2334
config **.node[68].xCor 3088
config **.node[68].yCor 1505
config **.node[69].xCor 3037
config **.node[69].yCor 1693
config **.node[70].xCor 3026
config **.node[70].yCor 1700
config **.node[71].xCor 3019
config **.node[71].yCor 669
config **.node[72].xCor 3513
config **.node[72].yCor 1358
config **.node[73].xCor 3545
config **.node[73].yCor 1230
config **.node[74].xCor 4228
config **.node[74].yCor 4220
config **.node[75].xCor 3379
config **.node[75].yCor 1207
config **.node[76].xCor 3596
config **.node[76].yCor 963
config **.node[77].xCor 3637
config **.node[77].yCor 1188
config **.node[78].xCor 3759
config **.node[78].yCor 1030
config **.node[79].xCor 2918
config **.node[79].yCor 1455
config **.node[80].xCor 2711
config **.node[80].yCor 1297
config **.node[81].xCor 439
config **.node[81].yCor 1623
config **.node[82].xCor 2857
config **.node[82].yCor 3581
config **.node[83].xCor 2858
config **.node[83].yCor 3584
config **.node[84].xCor 2999
config **.node[84].yCor 2636
config **.node[85].xCor 2905
config **.node[85].yCor 2778
config **.node[86].xCor 2653
config **.node[86].yCor 2845
config **.node[87].xCor 2864
config **.node[87].yCor 2836
config **.node[88].xCor 2426
config **.node[88].yCor 2892
config **.node[89].xCor 2964
config **.node[89].yCor 2804
config **.node[90].xCor 2586
config **.node[90].yCor 3135
config **.node[91].xCor 2864
config **.node[91].yCor 2980
config **.node[92].xCor 2527
config **.node[92].yCor 3219
config **.node[93].xCor 2863
config **.node[93].yCor 3142
config **.node[94].xCor 2485
config **.node[94].yCor 3269
config **.node[95].xCor 2653
config **.node[95].yCor 1065
config **.node[96].xCor 4062
config **.node[96].yCor 400
config **.node[97].xCor 5762
config **.node[97].yCor 3023
config **.node[98].xCor 1414
config **.node[98].yCor 3461
config **.node[99].xCor 2911
config **.node[99].yCor 1737
config **.node[100].xCor 2595
config **.node[100].yCor 2299
config **.node[101].xCor 2702
config **.node[101].yCor 3419
config **.node[102].xCor 2813
config **.node[102].yCor 3307
config **.node[103].xCor 2638
config **.node[103].yCor 2258
config **.node[104].xCor 2590
config **.node[104].yCor 3125
config **.node[105].xCor 1856
config **.node[105].yCor 2990
config **.node[106].xCor 1894
config **.node[106].yCor 2239
config **.node[107].xCor 383
config **.node[107].yCor 1251
config **.node[108].xCor 3447
config **.node[108].yCor 5489
config **.node[109].xCor 3450
config **.node[109].yCor 5697
config **.node[110].xCor 2719
config **.node[110].yCor 1920
config **.node[111].xCor 2085
config **.node[111].yCor 2389
config **.node[112].xCor 1910
config **.node[112].yCor 2548
config **.node[113].xCor 2069
config **.node[113].yCor 2050
config **.node[114].xCor 2184
config **.node[114].yCor 2209
config **.node[115].xCor 2278
config **.node[115].yCor 2390
config **.node[116].xCor 2249
config **.node[116].yCor 2299
config **.node[117].xCor 2356
config **.node[117].yCor 2303
config **.node[118].xCor 2192
config **.node[118].yCor 2475
config **.node[119].xCor 1720
config **.node[119].yCor 2911
config **.node[120].xCor 2400
config **.node[120].yCor 2887
config **.node[121].xCor 3344
config **.node[121].yCor 1890
config **.node[122].xCor 3136
config **.node[122].yCor 2418
config **.node[123].xCor 3243
config **.node[123].yCor 2525
config **.node[124].xCor 2396
config **.node[124].yCor 1267
config **.node[125].xCor 467
config **.node[125].yCor 1875
config **.node[126].xCor 3506
config **.node[126].yCor 1221
config **.node[127].xCor 1034
config **.node[127].yCor 1474
config **.node[128].xCor 2908
config **.node[128].yCor 1784
config **.node[129].xCor 2876
config **.node[129].yCor 1761
config **.node[130].xCor 2849
config **.node[130].yCor 1795
config **.node[131].xCor 3029
config **.node[131].yCor 1859
config **.node[132].xCor 2924
config **.node[132].yCor 1848
config **.node[133].xCor 3493
config **.node[133].yCor 1559
config **.node[134].xCor 2760
config **.node[134].yCor 1761
config **.node[135].xCor 1644
config **.node[135].yCor 3755
config **.node[136].xCor 1463
config **.node[136].yCor 3432
config **.node[137].xCor 2595
config **.node[137].yCor 2849
config **.node[138].xCor 2581
config **.node[138].yCor 2867
config **.node[139].xCor 2524
config **.node[139].yCor 2911
config **.node[140].xCor 2570
config **.node[140].yCor 2924
config **.node[141].xCor 2676
config **.node[141].yCor 2890
config **.node[142].xCor 2666
config **.node[142].yCor 2876
config **.node[143].xCor 3735
config **.node[143].yCor 1726
config **.node[144].xCor 1637
config **.node[144].yCor 3438

vector 0 TaxiNetwork.node[86] visitedPerTimestep ETV
vector 1 TaxiNetwork.node[7] visitedPerTimestep ETV
vector 2 TaxiNetwork.node[87] visitedPerTimestep ETV
vector 3 TaxiNetwork.node[137] visitedPerTimestep ETV
vector 4 TaxiNetwork.node[104] visitedPerTimestep ETV
vector 5 TaxiNetwork.node[29] visitedPerTimestep ETV
vector 6 TaxiNetwork.node[37] visitedPerTimestep ETV
vector 7 TaxiNetwork.node[82] visitedPerTimestep ETV
vector 8 TaxiNetwork.node[20] visitedPerTimestep ETV
vector 9 TaxiNetwork.node[89] visitedPerTimestep ETV
vector 10 TaxiNetwork.node[2] visitedPerTimestep ETV
vector 11 TaxiNetwork.node[88] visitedPerTimestep ETV
vector 12 TaxiNetwork.node[94] visitedPerTimestep ETV
vector 13 TaxiNetwork.node[13] visitedPerTimestep ETV
vector 14 TaxiNetwork.node[12] visitedPerTimestep ETV
vector 15 TaxiNetwork.node[4] visitedPerTimestep ETV
vector 16 TaxiNetwork.node[92] visitedPerTimestep ETV
vector 17 TaxiNetwork.node[16] visitedPerTimestep ETV
vector 18 TaxiNetwork.node[117] visitedPerTimestep ETV
vector 19 TaxiNetwork.node[112] visitedPerTimestep ETV
vector 20 TaxiNetwork.node[116] visitedPerTimestep ETV
vector 21 TaxiNetwork.node[138] visitedPerTimestep ETV
vector 22 TaxiNetwork.node[17] visitedPerTimestep ETV
vector 23 TaxiNetwork.node[32] visitedPerTimestep ETV
vector 24 TaxiNetwork.node[46] visitedPerTimestep ETV
vector 25 TaxiNetwork.node[120] visitedPerTimestep ETV
vector 26 TaxiNetwork.node[5] visitedPerTimestep ETV
vector 27 TaxiNetwork.node[85] visitedPerTimestep ETV
vector 28 TaxiNetwork.node[9] visitedPerTimestep ETV
vector 29 TaxiNetwork.node[90] visitedPerTimestep ETV
vector 30 TaxiNetwork.node[53] visitedPerTimestep ETV
vector 31 TaxiNetwork.node[100] visitedPerTimestep ETV
vector 32 TaxiNetwork.node[45] visitedPerTimestep ETV
vector 33 TaxiNetwork.node[93] visitedPerTimestep ETV
vector 34 TaxiNetwork.node[101] visitedPerTimestep ETV
vector 35 TaxiNetwork.node[139] visitedPerTimestep ETV
vector 36 TaxiNetwork.node[6] visitedPerTimestep ETV
vector 37 TaxiNetwork.node[91] visitedPerTimestep ETV
vector 38 TaxiNetwork.node[33] visitedPerTimestep ETV
vector 39 TaxiNetwork.node[15] visitedPerTimestep ETV
vector 40 TaxiNetwork.node[55] visitedPerTimestep ETV
vector 41 TaxiNetwork.node[35] visitedPerTimestep ETV
vector 42 TaxiNetwork.node[83] visitedPerTimestep ETV
vector 43 TaxiNetwork.node[22] visitedPerTimestep ETV
vector 44 TaxiNetwork.node[31] visitedPerTimestep ETV
vector 45 TaxiNetwork.node[36] visitedPerTimestep ETV
vector 46 TaxiNetwork.node[84] visitedPerTimestep ETV
vector 47 TaxiNetwork.node[30] visitedPerTimestep ETV
vector 48 TaxiNetwork.node[123] visitedPerTimestep ETV
vector 49 TaxiNetwork.node[1] visitedPerTimestep ETV
vector 50 TaxiNetwork.node[103] visitedPerTimestep ETV
vector 51 TaxiNetwork.node[52] visitedPerTimestep ETV
vector 52 TaxiNetwork.node[10] visitedPerTimestep ETV
vector 53 TaxiNetwork.node[14] visitedPerTimestep ETV
vector 54 TaxiNetwork.node[54] visitedPerTimestep ETV
vector 55 TaxiNetwork.node[44] visitedPerTimestep ETV
vector 56 TaxiNetwork.node[142] visitedPerTimestep ETV
vector 57 TaxiNetwork.node[115] visitedPerTimestep ETV
vector 58 TaxiNetwork.node[0] visitedPerTimestep ETV
vector 59 TaxiNetwork.node[122] visitedPerTimestep ETV
vector 60 TaxiNetwork.node[3] visitedPerTimestep ETV
vector 61 TaxiNetwork.node[102] visitedPerTimestep ETV
vector 62 TaxiNetwork.node[140] visitedPerTimestep ETV
vector 63 TaxiNetwork.node[110] visitedPerTimestep ETV
vector 64 TaxiNetwork.node[132] visitedPerTimestep ETV
vector 65 TaxiNetwork.node[130] visitedPerTimestep ETV
vector 66 TaxiNetwork.node[80] visitedPerTimestep ETV
vector 67 TaxiNetwork.node[131] visitedPerTimestep ETV
vector 68 TaxiNetwork.node[62] visitedPerTimestep ETV
vector 69 TaxiNetwork.node[70] visitedPerTimestep ETV
vector 70 TaxiNetwork.node[134] visitedPerTimestep ETV
vector 71 TaxiNetwork.node[79] visitedPerTimestep ETV
vector 72 TaxiNetwork.node[128] visitedPerTimestep ETV
vector 73 TaxiNetwork.node[63] visitedPerTimestep ETV
vector 74 TaxiNetwork.node[133] visitedPerTimestep ETV
vector 75 TaxiNetwork.node[65] visitedPerTimestep ETV
vector 76 TaxiNetwork.node[99] visitedPerTimestep ETV
vector 77 TaxiNetwork.node[129] visitedPerTimestep ETV
vector 78 TaxiNetwork.node[121] visitedPerTimestep ETV
vector 79 TaxiNetwork.node[126] visitedPerTimestep ETV
vector 80 TaxiNetwork.node[66] visitedPerTimestep ETV
vector 81 TaxiNetwork.node[141] visitedPerTimestep ETV
vector 82 TaxiNetwork.node[19] visitedPerTimestep ETV
vector 83 TaxiNetwork.node[27] visitedPerTimestep ETV
vector 84 TaxiNetwork.node[24] visitedPerTimestep ETV
vector 85 TaxiNetwork.node[18] visitedPerTimestep ETV
vector 86 TaxiNetwork.node[26] visitedPerTimestep ETV
vector 87 TaxiNetwork.node[11] visitedPerTimestep ETV
vector 88 TaxiNetwork.node[58] visitedPerTimestep ETV
vector 89 TaxiNetwork.node[127] visitedPerTimestep ETV
vector 90 TaxiNetwork.node[74] visitedPerTimestep ETV
vector 91 TaxiNetwork.node[118] visitedPerTimestep ETV
vector 92 TaxiNetwork.node[68] visitedPerTimestep ETV
vector 93 TaxiNetwork.node[69] visitedPerTimestep ETV
vector 94 TaxiNetwork.node[67] visitedPerTimestep ETV
vector 95 TaxiNetwork.node[61] visitedPerTimestep ETV
vector 96 TaxiNetwork.node[77] visitedPerTimestep ETV
vector 97 TaxiNetwork.node[78] visitedPerTimestep ETV
vector 98 TaxiNetwork.node[60] visitedPerTimestep ETV
vector 99 TaxiNetwork.node[73] visitedPerTimestep ETV
vector 100 TaxiNetwork.node[72] visitedPerTimestep ETV
vector 101 TaxiNetwork.node[143] visitedPerTimestep ETV
vector 102 TaxiNetwork.node[64] visitedPerTimestep ETV
vector 103 TaxiNetwork.node[111] visitedPerTimestep ETV
vector 104 TaxiNetwork.node[28] visitedPerTimestep ETV
vector 105 TaxiNetwork.node[40] visitedPerTimestep ETV
vector 106 TaxiNetwork.node[39] visitedPerTimestep ETV
vector 107 TaxiNetwork.node[56] visitedPerTimestep ETV
vector 108 TaxiNetwork.node[113] visitedPerTimestep ETV
vector 109 TaxiNetwork.node[57] visitedPerTimestep ETV
vector 110 TaxiNetwork.node[114] visitedPerTimestep ETV
vector 111 TaxiNetwork.node[59] visitedPerTimestep ETV
vector 112 TaxiNetwork.node[21] visitedPerTimestep ETV
vector 113 TaxiNetwork.node[107] visitedPerTimestep ETV
vector 114 TaxiNetwork.node[125] visitedPerTimestep ETV
vector 115 TaxiNetwork.node[8] visitedPerTimestep ETV
vector 116 TaxiNetwork.node[81] visitedPerTimestep ETV
vector 117 TaxiNetwork.node[144] visitedPerTimestep ETV
vector 118 TaxiNetwork.node[135] visitedPerTimestep ETV
vector 119 TaxiNetwork.node[136] visitedPerTimestep ETV
vector 120 TaxiNetwork.node[51] visitedPerTimestep ETV
vector 121 TaxiNetwork.node[34] visitedPerTimestep ETV
vector 122 TaxiNetwork.node[97] visitedPerTimestep ETV
vector 123 TaxiNetwork.node[109] visitedPerTimestep ETV
vector 124 TaxiNetwork.node[41] visitedPerTimestep ETV
vector 125 TaxiNetwork.node[23] visitedPerTimestep ETV
vector 126 TaxiNetwork.node[42] visitedPerTimestep ETV
vector 127 TaxiNetwork.node[108] visitedPerTimestep ETV
vector 128 TaxiNetwork.node[43] visitedPerTimestep ETV
vector 129 TaxiNetwork.node[124] visitedPerTimestep ETV
vector 130 TaxiNetwork.node[95] visitedPerTimestep ETV
vector 131 TaxiNetwork.node[76] visitedPerTimestep ETV
vector 132 TaxiNetwork.node[106] visitedPerTimestep ETV
vector 133 TaxiNetwork.node[75] visitedPerTimestep ETV
vector 134 TaxiNetwork.node[119] visitedPerTimestep ETV
vector 135 TaxiNetwork.node[105] visitedPerTimestep ETV
vector 136 TaxiNetwork.node[50] visitedPerTimestep ETV
vector 137 TaxiNetwork.node[49] visitedPerTimestep ETV
vector 138 TaxiNetwork.node[47] visitedPerTimestep ETV
vector 139 TaxiNetwork.node[98] visitedPerTimestep ETV
vector 140 TaxiNetwork.node[48] visitedPerTimestep ETV
vector 141 TaxiNetwork.node[71] visitedPerTimestep ETV
vector 142 TaxiNetwork.node[38] visitedPerTimestep ETV
0	16865 507 1 6128 0 0 41 1 144 5105 673177
1	17372 484 2 6588 0 0 39 2 144 4838 644132
2	17856 312 3 6308 0 0 25 3 144 3115 418173
3	18168 458 4 6076 0 0 37 4 144 4665 620715
4	18626 474 5 6624 0 0 38 5 144 4889 661475
5	19100 211 6 6252 0 0 17 6 144 2194 300708
6	19311 197 7 6336 0 0 16 7 144 1975 267943
7	19508 298 8 6644 0 0 24 8 144 2937 392269
8	19806 420 9 6552 0 0 34 9 144 4232 552620
9	20226 381 10 6100 0 0 31 10 144 3677 478481
10	20607 315 11 6272 0 0 24 11 144 2693 340861
11	20922 403 12 6232 0 0 30 12 144 3771 499711
12	21325 540 13 6568 0 0 40 13 144 5011 670115
13	21865 401 14 6192 0 0 30 14 144 3615 471789
14	22266 499 16 6384 0 0 37 15 144 4636 617568
15	22765 525 17 6548 0 0 39 16 144 4891 645201
16	23290 446 18 6580 0 0 33 17 144 4142 545034
17	23736 530 19 6604 0 0 39 18 144 5072 686058
18	24266 308 20 5148 0 0 23 19 144 2945 393005
19	24574 232 21 6228 0 0 17 20 144 2206 300910
20	24806 254 22 6180 0 0 19 21 144 2310 297960
21	25060 499 23 6404 0 0 37 22 144 4719 624835
22	25559 524 24 6172 0 0 39 23 144 4850 640428
23	26083 409 25 6520 0 0 30 24 144 3925 530673
24	26492 408 26 6524 0 0 30 25 144 3840 512398
25	26900 391 27 6424 0 0 29 26 144 3766 508066
26	27291 413 29 6540 0 0 30 27 144 4031 556813
27	27704 508 32 6596 0 0 38 28 144 4643 596431
28	28212 420 33 5760 0 0 32 29 144 3631 453451
29	28632 568 34 6616 0 0 42 30 144 5440 737960
30	29200 308 35 5964 0 0 23 31 144 2903 382399
31	29508 341 36 5980 0 0 25 32 144 3275 444619
32	29849 458 37 6532 0 0 34 33 144 4358 581796
33	30307 496 38 6516 0 0 37 34 144 4536 596986
34	30803 575 39 6164 0 0 43 35 144 5266 683622
35	31378 610 41 6396 0 0 45 36 144 5807 778427
36	31988 583 42 6600 0 0 43 37 144 5538 740510
37	32571 650 45 6376 0 0 48 38 144 6178 819868
38	33221 282 46 5240 0 0 21 39 144 2632 344870
39	33503 440 48 6452 0 0 33 40 144 4076 531614
40	33943 474 49 6612 0 0 35 41 144 4545 603801
41	34417 271 53 6564 0 0 20 42 144 2588 345420
42	34688 425 54 6636 0 0 31 43 144 4158 570510
43	35113 268 58 6488 0 0 20 44 144 2504 326900
44	35381 224 60 6556 0 0 17 45 144 2014 252754
45	35605 309 62 6632 0 0 23 46 144 2862 374128
46	35914 325 64 6268 0 0 24 47 144 3059 402113
47	36239 490 65 6620 0 0 36 48 144 4743 638843
48	36729 391 66 6528 0 0 29 49 144 3740 500514
49	37120 475 67 6380 0 0 35 50 144 4535 606105
50	37595 528 70 6436 0 0 39 51 144 5079 679943
51	38123 377 71 6428 0 0 28 52 144 3570 475160
52	38500 405 74 6536 0 0 30 53 144 3838 511898
53	38905 478 80 6444 0 0 35 54 144 4617 626327
54	39383 368 82 6608 0 0 27 55 144 3574 482970
55	39751 637 84 6440 0 0 47 56 144 6064 807550
56	40388 597 86 6420 0 0 44 57 144 5755 774649
57	40985 353 87 6416 0 0 26 58 144 3389 451913
58	41338 443 90 5340 0 0 33 59 144 4070 524028
59	41781 443 94 6136 0 0 33 60 144 4216 554292
60	42224 640 120 6168 0 0 47 61 144 6179 832311
61	42864 560 130 6284 0 0 41 62 144 5443 732447
62	43424 558 138 5752 0 0 41 63 144 5336 712232
63	43982 367 144 5728 0 0 27 64 144 3553 475631
64	44349 252 146 6052 0 0 19 65 144 2288 287990
65	44601 279 147 5984 0 0 21 66 144 2591 330501
66	44880 77 149 995 0 0 6 67 134 698 84984
67	44957 200 150 6048 0 0 15 68 144 1878 243514
68	45157 91 151 2226 0 0 7 69 140 785 92627
69	45248 174 152 5308 0 0 13 70 144 1625 210511
70	45422 241 153 5392 0 0 18 71 144 2302 300946
71	45663 169 154 6008 0 0 13 72 144 1569 197433
72	45832 205 155 6040 0 0 15 73 144 2014 274794
73	46037 133 156 5380 0 0 10 74 144 1201 150527
74	46170 225 157 6044 0 0 17 75 144 2102 268750
75	46395 93 158 5376 0 0 7 76 144 855 109067
76	46488 161 161 5384 0 0 12 77 144 1522 198254
77	46649 269 162 6036 0 0 20 78 144 2554 333294
78	46918 197 163 3780 0 0 15 79 143 1787 221127
79	47115 94 165 4220 0 0 7 80 143 899 118291
80	47209 89 168 6064 0 0 7 81 144 765 87375
81	47298 671 172 6544 0 0 49 82 144 6603 900197
82	47969 453 178 5272 0 0 33 83 144 4460 608036
83	48422 190 186 6472 0 0 14 84 144 1838 245922
84	48612 164 187 6484 0 0 12 85 144 1573 211213
85	48776 383 191 6432 0 0 28 86 144 3724 503258
86	49159 165 210 6344 0 0 12 87 144 1606 217498
87	49324 450 218 6368 0 0 33 88 144 4419 598515
88	49774 109 220 4860 0 0 8 89 143 1076 147186
89	49883 105 222 3044 0 0 8 90 143 943 112869
90	49988 162 247 6648 0 0 12 91 144 1582 211116
91	50150 424 262 6216 0 0 31 92 144 4177 569665
92	50574 131 285 6032 0 0 10 93 144 1269 164309
93	50705 147 291 3784 0 0 11 94 143 1370 173890
94	50852 178 301 5372 0 0 13 95 144 1732 233892
95	51030 163 307 6056 0 0 12 96 144 1621 220825
96	51193 92 308 6028 0 0 7 97 144 888 114950
97	51285 91 309 2234 0 0 7 98 141 841 103223
98	51376 176 310 6024 0 0 13 99 144 1674 218918
99	51552 54 311 2232 0 0 4 100 141 490 61062
100	51606 116 317 4216 0 0 8 101 143 1013 130039
101	51722 117 322 6000 0 0 8 102 144 1064 142762
102	51839 177 324 6060 0 0 12 103 144 1626 221714
103	52016 251 342 5828 0 0 17 104 144 2307 315867
104	52267 44 385 3704 0 0 3 105 143 388 51074
105	52311 220 426 5784 0 0 15 106 144 1986 265168
106	52531 103 427 6348 0 0 7 107 144 940 127214
107	52634 132 462 5952 0 0 9 108 144 1177 155919
108	52766 163 463 6224 0 0 11 109 144 1494 204488
109	52929 163 464 5496 0 0 11 110 144 1509 208695
110	53092 237 466 5960 0 0 16 111 144 2219 308835
111	53329 102 483 6220 0 0 7 112 144 949 129443
112	53431 193 529 6492 0 0 13 113 144 1784 245880
113	53624 28 544 575 0 0 2 114 117 231 26685
114	53652 28 545 574 0 0 2 115 117 232 26914
115	53680 428 567 6584 0 0 29 116 144 4024 560242
116	54108 14 573 573 0 0 1 117 117 117 13689
117	54122 134 645 5888 0 0 9 118 144 1257 176101
118	54256 179 646 5936 0 0 12 119 144 1693 239405
119	54435 103 647 5872 0 0 7 120 144 952 130156
120	54538 118 648 5940 0 0 8 121 144 1096 150846
121	54656 342 675 6628 0 0 23 122 144 3165 436623
122	54998 43 710 3676 0 0 3 123 143 395 52219
123	55041 29 712 6664 0 0 2 124 144 268 36112
124	55070 85 713 6660 0 0 6 125 144 780 101648
125	55155 14 714 714 0 0 1 126 126 126 15876
126	55169 29 716 6672 0 0 2 127 144 271 36865
127	55198 72 718 6668 0 0 5 128 144 674 91138
128	55270 29 719 6656 0 0 2 129 144 273 37377
129	55299 146 768 5388 0 0 10 130 144 1364 186318
130	55445 43 769 3232 0 0 3 131 143 408 55566
131	55488 59 795 6020 0 0 4 132 144 562 79058
132	55547 164 932 5956 0 0 11 133 144 1556 220206
133	55711 72 971 4224 0 0 5 134 143 680 92542
134	55783 75 1456 5844 0 0 5 136 144 707 100017
135	55858 150 1458 5944 0 0 10 136 144 1414 200028
136	56008 75 2338 5928 0 0 5 141 144 716 102538
137	56083 75 2340 5932 0 0 5 141 144 717 102825
138	56158 60 2348 5904 0 0 4 141 144 570 81234
139	56218 30 2360 5896 0 0 2 141 144 285 40617
140	56248 45 2364 5912 0 0 3 142 144 430 61636
141	56293 15 3236 3236 0 0 1 143 143 143 20449
142	56308 15 6676 6676 0 0 1 145 145 145 21025

