file 49735 1756984396                                           
version 3
run General-142-20250904-14:13:15-15436
attr configname General
attr datetime 20250904-14:13:15
attr datetimef 20250904-141315
attr experiment General
attr inifile omnetpp.ini
attr iterationvars ""
attr iterationvarsd ""
attr iterationvarsf ""
attr measurement ""
attr network TaxiNetwork
attr processid 15436
attr repetition 142
attr replication #142
attr resultdir results
attr runnumber 142
attr seedset 142
config network TaxiNetwork
config seed-set 142
config num-rngs 1
config sim-time-limit 10s
config repeat 500
config *.numWalkers 1
config *.enableDuplication true
config *.rc 700
config **.node[0].xCor 2933
config **.node[0].yCor 2747
config **.node[1].xCor 2919
config **.node[1].yCor 2817
config **.node[2].xCor 2910
config **.node[2].yCor 2861
config **.node[3].xCor 2429
config **.node[3].yCor 2851
config **.node[4].xCor 2908
config **.node[4].yCor 2714
config **.node[5].xCor 2606
config **.node[5].yCor 2722
config **.node[6].xCor 2575
config **.node[6].yCor 2753
config **.node[7].xCor 2654
config **.node[7].yCor 2513
config **.node[8].xCor 2773
config **.node[8].yCor 2580
config **.node[9].xCor 3043
config **.node[9].yCor 2780
config **.node[10].xCor 3020
config **.node[10].yCor 2813
config **.node[11].xCor 2599
config **.node[11].yCor 2300
config **.node[12].xCor 2917
config **.node[12].yCor 2698
config **.node[13].xCor 2625
config **.node[13].yCor 2641
config **.node[14].xCor 2604
config **.node[14].yCor 2790
config **.node[15].xCor 2786
config **.node[15].yCor 3082
config **.node[16].xCor 2603
config **.node[16].yCor 2802
config **.node[17].xCor 2637
config **.node[17].yCor 2869
config **.node[18].xCor 2675
config **.node[18].yCor 2955
config **.node[19].xCor 2845
config **.node[19].yCor 2937
config **.node[20].xCor 2860
config **.node[20].yCor 2888
config **.node[21].xCor 2843
config **.node[21].yCor 4158
config **.node[22].xCor 2852
config **.node[22].yCor 4017
config **.node[23].xCor 2892
config **.node[23].yCor 4961
config **.node[24].xCor 2313
config **.node[24].yCor 3993
config **.node[25].xCor 2891
config **.node[25].yCor 4959
config **.node[26].xCor 2370
config **.node[26].yCor 4050
config **.node[27].xCor 2788
config **.node[27].yCor 3958
config **.node[28].xCor 2819
config **.node[28].yCor 4428
config **.node[29].xCor 2790
config **.node[29].yCor 3761
config **.node[30].xCor 2809
config **.node[30].yCor 2908
config **.node[31].xCor 2919
config **.node[31].yCor 3575
config **.node[32].xCor 2946
config **.node[32].yCor 3466
config **.node[33].xCor 2911
config **.node[33].yCor 3453
config **.node[34].xCor 2370
config **.node[34].yCor 3656
config **.node[35].xCor 2438
config **.node[35].yCor 3738
config **.node[36].xCor 2737
config **.node[36].yCor 3570
config **.node[37].xCor 2921
config **.node[37].yCor 3698
config **.node[38].xCor 2907
config **.node[38].yCor 5197
config **.node[39].xCor 2860
config **.node[39].yCor 3852
config **.node[40].xCor 2927
config **.node[40].yCor 3684
config **.node[41].xCor 3023
config **.node[41].yCor 5313
config **.node[42].xCor 3220
config **.node[42].yCor 5811
config **.node[43].xCor 3432
config **.node[43].yCor 5715
config **.node[44].xCor 2754
config **.node[44].yCor 2463
config **.node[45].xCor 2646
config **.node[45].yCor 2673
config **.node[46].xCor 3051
config **.node[46].yCor 2792
config **.node[47].xCor 1666
config **.node[47].yCor 3697
config **.node[48].xCor 1662
config **.node[48].yCor 3694
config **.node[49].xCor 1664
config **.node[49].yCor 3667
config **.node[50].xCor 1660
config **.node[50].yCor 3664
config **.node[51].xCor 1710
config **.node[51].yCor 3573
config **.node[52].xCor 2082
config **.node[52].yCor 2650
config **.node[53].xCor 2086
config **.node[53].yCor 2657
config **.node[54].xCor 2257
config **.node[54].yCor 3232
config **.node[55].xCor 2258
config **.node[55].yCor 3225
config **.node[56].xCor 1926
config **.node[56].yCor 2570
config **.node[57].xCor 1926
config **.node[57].yCor 2576
config **.node[58].xCor 2104
config **.node[58].yCor 1758
config **.node[59].xCor 1957
config **.node[59].yCor 1826
config **.node[60].xCor 3473
config **.node[60].yCor 1523
config **.node[61].xCor 3335
config **.node[61].yCor 1726
config **.node[62].xCor 3478
config **.node[62].yCor 1517
config **.node[63].xCor 3386
config **.node[63].yCor 2119
config **.node[64].xCor 3474
config **.node[64].yCor 1762
config **.node[65].xCor 3797
config **.node[65].yCor 2099
config **.node[66].xCor 3642
config **.node[66].yCor 2136
config **.node[67].xCor 3481
config **.node[67].yCor 2334
config **.node[68].xCor 3088
config **.node[68].yCor 1505
config **.node[69].xCor 3037
config **.node[69].yCor 1693
config **.node[70].xCor 3026
config **.node[70].yCor 1700
config **.node[71].xCor 3019
config **.node[71].yCor 669
config **.node[72].xCor 3513
config **.node[72].yCor 1358
config **.node[73].xCor 3545
config **.node[73].yCor 1230
config **.node[74].xCor 4228
config **.node[74].yCor 4220
config **.node[75].xCor 3379
config **.node[75].yCor 1207
config **.node[76].xCor 3596
config **.node[76].yCor 963
config **.node[77].xCor 3637
config **.node[77].yCor 1188
config **.node[78].xCor 3759
config **.node[78].yCor 1030
config **.node[79].xCor 2918
config **.node[79].yCor 1455
config **.node[80].xCor 2711
config **.node[80].yCor 1297
config **.node[81].xCor 439
config **.node[81].yCor 1623
config **.node[82].xCor 2857
config **.node[82].yCor 3581
config **.node[83].xCor 2858
config **.node[83].yCor 3584
config **.node[84].xCor 2999
config **.node[84].yCor 2636
config **.node[85].xCor 2905
config **.node[85].yCor 2778
config **.node[86].xCor 2653
config **.node[86].yCor 2845
config **.node[87].xCor 2864
config **.node[87].yCor 2836
config **.node[88].xCor 2426
config **.node[88].yCor 2892
config **.node[89].xCor 2964
config **.node[89].yCor 2804
config **.node[90].xCor 2586
config **.node[90].yCor 3135
config **.node[91].xCor 2864
config **.node[91].yCor 2980
config **.node[92].xCor 2527
config **.node[92].yCor 3219
config **.node[93].xCor 2863
config **.node[93].yCor 3142
config **.node[94].xCor 2485
config **.node[94].yCor 3269
config **.node[95].xCor 2653
config **.node[95].yCor 1065
config **.node[96].xCor 4062
config **.node[96].yCor 400
config **.node[97].xCor 5762
config **.node[97].yCor 3023
config **.node[98].xCor 1414
config **.node[98].yCor 3461
config **.node[99].xCor 2911
config **.node[99].yCor 1737
config **.node[100].xCor 2595
config **.node[100].yCor 2299
config **.node[101].xCor 2702
config **.node[101].yCor 3419
config **.node[102].xCor 2813
config **.node[102].yCor 3307
config **.node[103].xCor 2638
config **.node[103].yCor 2258
config **.node[104].xCor 2590
config **.node[104].yCor 3125
config **.node[105].xCor 1856
config **.node[105].yCor 2990
config **.node[106].xCor 1894
config **.node[106].yCor 2239
config **.node[107].xCor 383
config **.node[107].yCor 1251
config **.node[108].xCor 3447
config **.node[108].yCor 5489
config **.node[109].xCor 3450
config **.node[109].yCor 5697
config **.node[110].xCor 2719
config **.node[110].yCor 1920
config **.node[111].xCor 2085
config **.node[111].yCor 2389
config **.node[112].xCor 1910
config **.node[112].yCor 2548
config **.node[113].xCor 2069
config **.node[113].yCor 2050
config **.node[114].xCor 2184
config **.node[114].yCor 2209
config **.node[115].xCor 2278
config **.node[115].yCor 2390
config **.node[116].xCor 2249
config **.node[116].yCor 2299
config **.node[117].xCor 2356
config **.node[117].yCor 2303
config **.node[118].xCor 2192
config **.node[118].yCor 2475
config **.node[119].xCor 1720
config **.node[119].yCor 2911
config **.node[120].xCor 2400
config **.node[120].yCor 2887
config **.node[121].xCor 3344
config **.node[121].yCor 1890
config **.node[122].xCor 3136
config **.node[122].yCor 2418
config **.node[123].xCor 3243
config **.node[123].yCor 2525
config **.node[124].xCor 2396
config **.node[124].yCor 1267
config **.node[125].xCor 467
config **.node[125].yCor 1875
config **.node[126].xCor 3506
config **.node[126].yCor 1221
config **.node[127].xCor 1034
config **.node[127].yCor 1474
config **.node[128].xCor 2908
config **.node[128].yCor 1784
config **.node[129].xCor 2876
config **.node[129].yCor 1761
config **.node[130].xCor 2849
config **.node[130].yCor 1795
config **.node[131].xCor 3029
config **.node[131].yCor 1859
config **.node[132].xCor 2924
config **.node[132].yCor 1848
config **.node[133].xCor 3493
config **.node[133].yCor 1559
config **.node[134].xCor 2760
config **.node[134].yCor 1761
config **.node[135].xCor 1644
config **.node[135].yCor 3755
config **.node[136].xCor 1463
config **.node[136].yCor 3432
config **.node[137].xCor 2595
config **.node[137].yCor 2849
config **.node[138].xCor 2581
config **.node[138].yCor 2867
config **.node[139].xCor 2524
config **.node[139].yCor 2911
config **.node[140].xCor 2570
config **.node[140].yCor 2924
config **.node[141].xCor 2676
config **.node[141].yCor 2890
config **.node[142].xCor 2666
config **.node[142].yCor 2876
config **.node[143].xCor 3735
config **.node[143].yCor 1726
config **.node[144].xCor 1637
config **.node[144].yCor 3438

vector 0 TaxiNetwork.node[44] visitedPerTimestep ETV
vector 1 TaxiNetwork.node[5] visitedPerTimestep ETV
vector 2 TaxiNetwork.node[55] visitedPerTimestep ETV
vector 3 TaxiNetwork.node[33] visitedPerTimestep ETV
vector 4 TaxiNetwork.node[85] visitedPerTimestep ETV
vector 5 TaxiNetwork.node[137] visitedPerTimestep ETV
vector 6 TaxiNetwork.node[16] visitedPerTimestep ETV
vector 7 TaxiNetwork.node[120] visitedPerTimestep ETV
vector 8 TaxiNetwork.node[13] visitedPerTimestep ETV
vector 9 TaxiNetwork.node[90] visitedPerTimestep ETV
vector 10 TaxiNetwork.node[11] visitedPerTimestep ETV
vector 11 TaxiNetwork.node[141] visitedPerTimestep ETV
vector 12 TaxiNetwork.node[122] visitedPerTimestep ETV
vector 13 TaxiNetwork.node[66] visitedPerTimestep ETV
vector 14 TaxiNetwork.node[62] visitedPerTimestep ETV
vector 15 TaxiNetwork.node[126] visitedPerTimestep ETV
vector 16 TaxiNetwork.node[77] visitedPerTimestep ETV
vector 17 TaxiNetwork.node[129] visitedPerTimestep ETV
vector 18 TaxiNetwork.node[130] visitedPerTimestep ETV
vector 19 TaxiNetwork.node[127] visitedPerTimestep ETV
vector 20 TaxiNetwork.node[81] visitedPerTimestep ETV
vector 21 TaxiNetwork.node[133] visitedPerTimestep ETV
vector 22 TaxiNetwork.node[70] visitedPerTimestep ETV
vector 23 TaxiNetwork.node[131] visitedPerTimestep ETV
vector 24 TaxiNetwork.node[134] visitedPerTimestep ETV
vector 25 TaxiNetwork.node[107] visitedPerTimestep ETV
vector 26 TaxiNetwork.node[125] visitedPerTimestep ETV
vector 27 TaxiNetwork.node[132] visitedPerTimestep ETV
vector 28 TaxiNetwork.node[103] visitedPerTimestep ETV
vector 29 TaxiNetwork.node[79] visitedPerTimestep ETV
vector 30 TaxiNetwork.node[73] visitedPerTimestep ETV
vector 31 TaxiNetwork.node[143] visitedPerTimestep ETV
vector 32 TaxiNetwork.node[75] visitedPerTimestep ETV
vector 33 TaxiNetwork.node[76] visitedPerTimestep ETV
vector 34 TaxiNetwork.node[72] visitedPerTimestep ETV
vector 35 TaxiNetwork.node[128] visitedPerTimestep ETV
vector 36 TaxiNetwork.node[99] visitedPerTimestep ETV
vector 37 TaxiNetwork.node[80] visitedPerTimestep ETV
vector 38 TaxiNetwork.node[52] visitedPerTimestep ETV
vector 39 TaxiNetwork.node[117] visitedPerTimestep ETV
vector 40 TaxiNetwork.node[59] visitedPerTimestep ETV
vector 41 TaxiNetwork.node[111] visitedPerTimestep ETV
vector 42 TaxiNetwork.node[139] visitedPerTimestep ETV
vector 43 TaxiNetwork.node[121] visitedPerTimestep ETV
vector 44 TaxiNetwork.node[69] visitedPerTimestep ETV
vector 45 TaxiNetwork.node[64] visitedPerTimestep ETV
vector 46 TaxiNetwork.node[68] visitedPerTimestep ETV
vector 47 TaxiNetwork.node[63] visitedPerTimestep ETV
vector 48 TaxiNetwork.node[60] visitedPerTimestep ETV
vector 49 TaxiNetwork.node[12] visitedPerTimestep ETV
vector 50 TaxiNetwork.node[84] visitedPerTimestep ETV
vector 51 TaxiNetwork.node[10] visitedPerTimestep ETV
vector 52 TaxiNetwork.node[30] visitedPerTimestep ETV
vector 53 TaxiNetwork.node[6] visitedPerTimestep ETV
vector 54 TaxiNetwork.node[7] visitedPerTimestep ETV
vector 55 TaxiNetwork.node[104] visitedPerTimestep ETV
vector 56 TaxiNetwork.node[101] visitedPerTimestep ETV
vector 57 TaxiNetwork.node[20] visitedPerTimestep ETV
vector 58 TaxiNetwork.node[140] visitedPerTimestep ETV
vector 59 TaxiNetwork.node[32] visitedPerTimestep ETV
vector 60 TaxiNetwork.node[83] visitedPerTimestep ETV
vector 61 TaxiNetwork.node[86] visitedPerTimestep ETV
vector 62 TaxiNetwork.node[94] visitedPerTimestep ETV
vector 63 TaxiNetwork.node[17] visitedPerTimestep ETV
vector 64 TaxiNetwork.node[91] visitedPerTimestep ETV
vector 65 TaxiNetwork.node[53] visitedPerTimestep ETV
vector 66 TaxiNetwork.node[106] visitedPerTimestep ETV
vector 67 TaxiNetwork.node[115] visitedPerTimestep ETV
vector 68 TaxiNetwork.node[118] visitedPerTimestep ETV
vector 69 TaxiNetwork.node[116] visitedPerTimestep ETV
vector 70 TaxiNetwork.node[119] visitedPerTimestep ETV
vector 71 TaxiNetwork.node[88] visitedPerTimestep ETV
vector 72 TaxiNetwork.node[56] visitedPerTimestep ETV
vector 73 TaxiNetwork.node[3] visitedPerTimestep ETV
vector 74 TaxiNetwork.node[19] visitedPerTimestep ETV
vector 75 TaxiNetwork.node[14] visitedPerTimestep ETV
vector 76 TaxiNetwork.node[0] visitedPerTimestep ETV
vector 77 TaxiNetwork.node[92] visitedPerTimestep ETV
vector 78 TaxiNetwork.node[18] visitedPerTimestep ETV
vector 79 TaxiNetwork.node[9] visitedPerTimestep ETV
vector 80 TaxiNetwork.node[8] visitedPerTimestep ETV
vector 81 TaxiNetwork.node[89] visitedPerTimestep ETV
vector 82 TaxiNetwork.node[102] visitedPerTimestep ETV
vector 83 TaxiNetwork.node[36] visitedPerTimestep ETV
vector 84 TaxiNetwork.node[138] visitedPerTimestep ETV
vector 85 TaxiNetwork.node[54] visitedPerTimestep ETV
vector 86 TaxiNetwork.node[142] visitedPerTimestep ETV
vector 87 TaxiNetwork.node[58] visitedPerTimestep ETV
vector 88 TaxiNetwork.node[124] visitedPerTimestep ETV
vector 89 TaxiNetwork.node[100] visitedPerTimestep ETV
vector 90 TaxiNetwork.node[4] visitedPerTimestep ETV
vector 91 TaxiNetwork.node[21] visitedPerTimestep ETV
vector 92 TaxiNetwork.node[39] visitedPerTimestep ETV
vector 93 TaxiNetwork.node[40] visitedPerTimestep ETV
vector 94 TaxiNetwork.node[123] visitedPerTimestep ETV
vector 95 TaxiNetwork.node[105] visitedPerTimestep ETV
vector 96 TaxiNetwork.node[136] visitedPerTimestep ETV
vector 97 TaxiNetwork.node[49] visitedPerTimestep ETV
vector 98 TaxiNetwork.node[135] visitedPerTimestep ETV
vector 99 TaxiNetwork.node[98] visitedPerTimestep ETV
vector 100 TaxiNetwork.node[50] visitedPerTimestep ETV
vector 101 TaxiNetwork.node[144] visitedPerTimestep ETV
vector 102 TaxiNetwork.node[29] visitedPerTimestep ETV
vector 103 TaxiNetwork.node[34] visitedPerTimestep ETV
vector 104 TaxiNetwork.node[82] visitedPerTimestep ETV
vector 105 TaxiNetwork.node[93] visitedPerTimestep ETV
vector 106 TaxiNetwork.node[15] visitedPerTimestep ETV
vector 107 TaxiNetwork.node[45] visitedPerTimestep ETV
vector 108 TaxiNetwork.node[113] visitedPerTimestep ETV
vector 109 TaxiNetwork.node[2] visitedPerTimestep ETV
vector 110 TaxiNetwork.node[22] visitedPerTimestep ETV
vector 111 TaxiNetwork.node[74] visitedPerTimestep ETV
vector 112 TaxiNetwork.node[35] visitedPerTimestep ETV
vector 113 TaxiNetwork.node[46] visitedPerTimestep ETV
vector 114 TaxiNetwork.node[87] visitedPerTimestep ETV
vector 115 TaxiNetwork.node[37] visitedPerTimestep ETV
vector 116 TaxiNetwork.node[114] visitedPerTimestep ETV
vector 117 TaxiNetwork.node[112] visitedPerTimestep ETV
vector 118 TaxiNetwork.node[31] visitedPerTimestep ETV
vector 119 TaxiNetwork.node[57] visitedPerTimestep ETV
vector 120 TaxiNetwork.node[26] visitedPerTimestep ETV
vector 121 TaxiNetwork.node[1] visitedPerTimestep ETV
vector 122 TaxiNetwork.node[27] visitedPerTimestep ETV
vector 123 TaxiNetwork.node[51] visitedPerTimestep ETV
vector 124 TaxiNetwork.node[48] visitedPerTimestep ETV
vector 125 TaxiNetwork.node[67] visitedPerTimestep ETV
vector 126 TaxiNetwork.node[24] visitedPerTimestep ETV
vector 127 TaxiNetwork.node[110] visitedPerTimestep ETV
vector 128 TaxiNetwork.node[61] visitedPerTimestep ETV
vector 129 TaxiNetwork.node[28] visitedPerTimestep ETV
vector 130 TaxiNetwork.node[78] visitedPerTimestep ETV
vector 131 TaxiNetwork.node[71] visitedPerTimestep ETV
vector 132 TaxiNetwork.node[65] visitedPerTimestep ETV
vector 133 TaxiNetwork.node[47] visitedPerTimestep ETV
vector 134 TaxiNetwork.node[97] visitedPerTimestep ETV
vector 135 TaxiNetwork.node[25] visitedPerTimestep ETV
vector 136 TaxiNetwork.node[38] visitedPerTimestep ETV
vector 137 TaxiNetwork.node[41] visitedPerTimestep ETV
vector 138 TaxiNetwork.node[109] visitedPerTimestep ETV
vector 139 TaxiNetwork.node[108] visitedPerTimestep ETV
vector 140 TaxiNetwork.node[42] visitedPerTimestep ETV
vector 141 TaxiNetwork.node[43] visitedPerTimestep ETV
vector 142 TaxiNetwork.node[23] visitedPerTimestep ETV
0	16865 322 1 4604 0 0 26 1 144 3250 424118
1	17187 357 2 4724 0 0 29 2 144 3576 465952
2	17544 384 3 4436 0 0 31 3 144 3795 490575
3	17928 408 4 4448 0 0 33 4 144 4057 519275
4	18336 348 5 4380 0 0 28 5 143 3435 442129
5	18684 354 6 4228 0 0 28 6 143 3578 473614
6	19038 309 7 4668 0 0 25 7 144 3038 393512
7	19347 344 8 4260 0 0 28 8 143 3434 439024
8	19691 366 9 4664 0 0 30 9 144 3574 458612
9	20057 542 10 4656 0 0 43 10 144 5467 714761
10	20599 335 12 4172 0 0 25 11 143 3079 397947
11	20934 396 13 4560 0 0 30 12 144 3576 448574
12	21330 413 14 4504 0 0 31 13 144 3787 486145
13	21743 78 15 1524 0 0 6 14 132 631 77351
14	21821 152 16 3496 0 0 12 15 136 1103 130731
15	21973 100 17 3508 0 0 8 16 136 683 76755
16	22073 53 18 1862 0 0 4 17 133 412 52300
17	22126 150 20 4684 0 0 12 18 144 1055 125233
18	22276 170 21 3492 0 0 13 19 136 1451 182283
19	22446 80 22 1400 0 0 7 20 132 296 22284
20	22526 55 23 44 0 0 5 21 27 129 3357
21	22581 131 26 1860 0 0 10 22 133 1093 134269
22	22712 152 27 2248 0 0 12 23 134 1094 126608
23	22864 188 28 4616 0 0 14 24 144 1672 216616
24	23052 143 31 3488 0 0 11 25 136 1218 152194
25	23195 55 33 45 0 0 5 26 27 134 3592
26	23250 33 34 42 0 0 3 27 27 81 2187
27	23283 167 48 3500 0 0 13 28 136 1407 172715
28	23450 497 50 4692 0 0 37 29 144 4522 585372
29	23947 146 52 4156 0 0 11 30 143 1185 148021
30	24093 133 53 1874 0 0 10 31 133 1129 141427
31	24226 117 54 1864 0 0 9 32 133 913 109013
32	24343 104 55 3512 0 0 8 33 136 869 107257
33	24447 25 56 1680 0 0 2 34 132 166 18580
34	24472 134 57 1678 0 0 10 35 132 1131 141155
35	24606 183 59 4552 0 0 14 36 144 1580 198278
36	24789 119 60 3480 0 0 9 37 136 1057 131825
37	24908 65 62 2268 0 0 5 38 134 539 64467
38	24973 195 65 3860 0 0 15 39 143 1715 207123
39	25168 285 66 4640 0 0 22 40 144 2455 292357
40	25453 66 67 2836 0 0 5 41 136 550 66906
41	25519 282 68 4252 0 0 21 42 143 2544 324732
42	25801 497 70 4648 0 0 37 43 144 4633 594387
43	26298 88 75 1888 0 0 7 44 133 736 87700
44	26386 148 80 3516 0 0 11 45 136 1283 161539
45	26534 122 85 2728 0 0 9 46 136 1099 140821
46	26656 120 96 3476 0 0 9 47 136 1090 138306
47	26776 134 97 4612 0 0 10 48 144 1231 158233
48	26910 108 98 3504 0 0 8 49 136 978 125734
49	27018 509 105 4244 0 0 38 50 143 4770 611564
50	27527 254 106 4400 0 0 19 51 143 2275 287011
51	27781 395 107 4652 0 0 29 52 144 3729 490399
52	28176 556 108 4568 0 0 41 53 144 5224 678572
53	28732 430 109 3316 0 0 32 54 136 3958 502124
54	29162 256 110 4476 0 0 19 55 144 2328 293948
55	29418 453 112 4708 0 0 34 56 144 4089 510255
56	29871 377 113 4580 0 0 28 57 144 3497 445557
57	30248 378 114 4524 0 0 28 58 144 3559 458725
58	30626 393 115 4512 0 0 29 59 144 3624 467574
59	31019 380 122 4340 0 0 28 60 143 3545 457373
60	31399 323 123 4452 0 0 24 61 144 3032 389036
61	31722 460 126 4672 0 0 34 62 144 4262 547270
62	32182 367 127 4572 0 0 27 63 144 3431 444319
63	32549 588 128 4712 0 0 43 64 144 5607 738587
64	33137 396 130 4268 0 0 29 65 143 3768 494712
65	33533 458 132 4728 0 0 34 66 145 4280 547416
66	33991 149 135 2838 0 0 11 67 136 1369 174309
67	34140 271 136 4644 0 0 20 68 144 2518 325172
68	34411 347 137 4484 0 0 26 69 144 3172 399114
69	34758 282 138 4028 0 0 21 70 143 2551 318737
70	35040 122 141 3948 0 0 9 71 143 1133 146459
71	35162 324 145 4468 0 0 24 72 144 2986 380410
72	35486 120 149 4628 0 0 9 73 144 1112 141114
73	35606 415 150 4328 0 0 30 74 143 3965 528455
74	36021 363 153 4592 0 0 27 75 144 3383 431539
75	36384 406 155 4184 0 0 30 76 143 3838 497088
76	36790 460 158 3896 0 0 34 77 143 4310 552148
77	37250 433 161 4376 0 0 32 78 143 4081 526907
78	37683 364 162 4696 0 0 27 79 144 3398 433734
79	38047 339 163 4416 0 0 25 80 144 3214 417912
80	38386 309 167 4720 0 0 23 81 144 2952 382608
81	38695 273 170 4716 0 0 20 82 144 2616 345968
82	38968 256 175 4428 0 0 19 83 144 2363 300393
83	39224 406 177 4444 0 0 30 84 144 3854 500734
84	39630 353 181 4460 0 0 26 85 144 3426 455340
85	39983 372 182 4660 0 0 28 86 144 3502 443660
86	40355 385 183 4336 0 0 29 87 143 3524 435248
87	40740 94 194 4636 0 0 7 88 144 882 113052
88	40834 53 195 1408 0 0 4 89 132 476 57898
89	40887 431 206 4680 0 0 32 90 144 4143 540543
90	41318 321 207 4052 0 0 24 91 143 3004 380652
91	41639 78 212 2636 0 0 6 92 136 709 85085
92	41717 120 213 4276 0 0 9 93 143 1127 143005
93	41837 188 214 4300 0 0 14 94 143 1749 221401
94	42025 287 219 4364 0 0 21 95 143 2722 354924
95	42312 95 225 3952 0 0 7 96 143 903 117877
96	42407 53 226 2450 0 0 4 97 135 489 60719
97	42460 124 227 3564 0 0 9 98 139 1183 156791
98	42584 152 228 3572 0 0 11 99 139 1455 193705
99	42736 152 229 3596 0 0 11 100 139 1444 190808
100	42888 119 230 3568 0 0 8 101 139 1048 138334
101	43007 149 231 3600 0 0 10 102 139 1330 178008
102	43156 203 236 3700 0 0 14 103 139 1762 223566
103	43359 204 240 4308 0 0 14 104 143 1799 232767
104	43563 221 244 4704 0 0 15 105 144 1979 262405
105	43784 443 245 4388 0 0 30 106 143 3920 514904
106	44227 551 253 4072 0 0 38 107 143 4855 622733
107	44778 335 261 4492 0 0 23 108 144 3002 393672
108	45113 102 277 4624 0 0 7 109 144 902 116980
109	45215 470 302 4424 0 0 32 110 144 4204 554370
110	45685 160 307 3712 0 0 11 111 139 1415 182567
111	45845 104 309 3984 0 0 7 112 143 925 122781
112	45949 147 311 4440 0 0 10 113 144 1328 177428
113	46096 378 317 4188 0 0 26 114 143 3366 436838
114	46474 561 325 4676 0 0 38 115 144 5065 676843
115	47035 206 348 4296 0 0 14 116 143 1823 238191
116	47241 175 354 4632 0 0 12 117 144 1582 209302
117	47416 175 391 3956 0 0 12 118 143 1563 204045
118	47591 221 401 4700 0 0 15 119 144 1976 260988
119	47812 87 412 3240 0 0 6 120 136 765 97803
120	47899 115 438 2626 0 0 8 121 136 1018 129770
121	48014 281 464 4600 0 0 19 122 144 2563 346601
122	48295 118 565 2888 0 0 8 123 136 1054 138992
123	48413 88 654 3536 0 0 6 124 139 788 103664
124	48501 104 655 3584 0 0 7 125 139 936 125266
125	48605 162 717 4412 0 0 11 126 144 1463 194939
126	48767 117 794 3744 0 0 8 127 139 1056 139532
127	48884 193 855 4688 0 0 13 128 144 1767 240493
128	49077 133 913 2254 0 0 9 129 134 1186 156314
129	49210 74 977 3812 0 0 5 130 143 683 93391
130	49284 30 1302 1690 0 0 2 132 133 265 35113
131	49314 15 1682 1682 0 0 1 133 133 133 17689
132	49329 15 1694 1694 0 0 1 133 133 133 17689
133	49344 135 2114 3592 0 0 9 134 139 1229 167871
134	49479 15 2322 2322 0 0 1 135 135 135 18225
135	49494 60 2546 3808 0 0 4 136 143 558 77866
136	49554 15 3756 3756 0 0 1 140 140 140 19600
137	49569 45 3764 3800 0 0 3 140 143 426 60498
138	49614 15 3768 3768 0 0 1 140 140 140 19600
139	49629 15 3772 3772 0 0 1 141 141 141 19881
140	49644 30 3776 3792 0 0 2 142 143 285 40613
141	49674 45 3780 3796 0 0 3 143 143 429 61347
142	49719 15 3804 3804 0 0 1 143 143 143 20449

