file 61340 1756984396                                           
version 3
run General-167-20250904-14:13:16-15476
attr configname General
attr datetime 20250904-14:13:16
attr datetimef 20250904-141316
attr experiment General
attr inifile omnetpp.ini
attr iterationvars ""
attr iterationvarsd ""
attr iterationvarsf ""
attr measurement ""
attr network TaxiNetwork
attr processid 15476
attr repetition 167
attr replication #167
attr resultdir results
attr runnumber 167
attr seedset 167
config network TaxiNetwork
config seed-set 167
config num-rngs 1
config sim-time-limit 10s
config repeat 500
config *.numWalkers 1
config *.enableDuplication true
config *.rc 700
config **.node[0].xCor 2933
config **.node[0].yCor 2747
config **.node[1].xCor 2919
config **.node[1].yCor 2817
config **.node[2].xCor 2910
config **.node[2].yCor 2861
config **.node[3].xCor 2429
config **.node[3].yCor 2851
config **.node[4].xCor 2908
config **.node[4].yCor 2714
config **.node[5].xCor 2606
config **.node[5].yCor 2722
config **.node[6].xCor 2575
config **.node[6].yCor 2753
config **.node[7].xCor 2654
config **.node[7].yCor 2513
config **.node[8].xCor 2773
config **.node[8].yCor 2580
config **.node[9].xCor 3043
config **.node[9].yCor 2780
config **.node[10].xCor 3020
config **.node[10].yCor 2813
config **.node[11].xCor 2599
config **.node[11].yCor 2300
config **.node[12].xCor 2917
config **.node[12].yCor 2698
config **.node[13].xCor 2625
config **.node[13].yCor 2641
config **.node[14].xCor 2604
config **.node[14].yCor 2790
config **.node[15].xCor 2786
config **.node[15].yCor 3082
config **.node[16].xCor 2603
config **.node[16].yCor 2802
config **.node[17].xCor 2637
config **.node[17].yCor 2869
config **.node[18].xCor 2675
config **.node[18].yCor 2955
config **.node[19].xCor 2845
config **.node[19].yCor 2937
config **.node[20].xCor 2860
config **.node[20].yCor 2888
config **.node[21].xCor 2843
config **.node[21].yCor 4158
config **.node[22].xCor 2852
config **.node[22].yCor 4017
config **.node[23].xCor 2892
config **.node[23].yCor 4961
config **.node[24].xCor 2313
config **.node[24].yCor 3993
config **.node[25].xCor 2891
config **.node[25].yCor 4959
config **.node[26].xCor 2370
config **.node[26].yCor 4050
config **.node[27].xCor 2788
config **.node[27].yCor 3958
config **.node[28].xCor 2819
config **.node[28].yCor 4428
config **.node[29].xCor 2790
config **.node[29].yCor 3761
config **.node[30].xCor 2809
config **.node[30].yCor 2908
config **.node[31].xCor 2919
config **.node[31].yCor 3575
config **.node[32].xCor 2946
config **.node[32].yCor 3466
config **.node[33].xCor 2911
config **.node[33].yCor 3453
config **.node[34].xCor 2370
config **.node[34].yCor 3656
config **.node[35].xCor 2438
config **.node[35].yCor 3738
config **.node[36].xCor 2737
config **.node[36].yCor 3570
config **.node[37].xCor 2921
config **.node[37].yCor 3698
config **.node[38].xCor 2907
config **.node[38].yCor 5197
config **.node[39].xCor 2860
config **.node[39].yCor 3852
config **.node[40].xCor 2927
config **.node[40].yCor 3684
config **.node[41].xCor 3023
config **.node[41].yCor 5313
config **.node[42].xCor 3220
config **.node[42].yCor 5811
config **.node[43].xCor 3432
config **.node[43].yCor 5715
config **.node[44].xCor 2754
config **.node[44].yCor 2463
config **.node[45].xCor 2646
config **.node[45].yCor 2673
config **.node[46].xCor 3051
config **.node[46].yCor 2792
config **.node[47].xCor 1666
config **.node[47].yCor 3697
config **.node[48].xCor 1662
config **.node[48].yCor 3694
config **.node[49].xCor 1664
config **.node[49].yCor 3667
config **.node[50].xCor 1660
config **.node[50].yCor 3664
config **.node[51].xCor 1710
config **.node[51].yCor 3573
config **.node[52].xCor 2082
config **.node[52].yCor 2650
config **.node[53].xCor 2086
config **.node[53].yCor 2657
config **.node[54].xCor 2257
config **.node[54].yCor 3232
config **.node[55].xCor 2258
config **.node[55].yCor 3225
config **.node[56].xCor 1926
config **.node[56].yCor 2570
config **.node[57].xCor 1926
config **.node[57].yCor 2576
config **.node[58].xCor 2104
config **.node[58].yCor 1758
config **.node[59].xCor 1957
config **.node[59].yCor 1826
config **.node[60].xCor 3473
config **.node[60].yCor 1523
config **.node[61].xCor 3335
config **.node[61].yCor 1726
config **.node[62].xCor 3478
config **.node[62].yCor 1517
config **.node[63].xCor 3386
config **.node[63].yCor 2119
config **.node[64].xCor 3474
config **.node[64].yCor 1762
config **.node[65].xCor 3797
config **.node[65].yCor 2099
config **.node[66].xCor 3642
config **.node[66].yCor 2136
config **.node[67].xCor 3481
config **.node[67].yCor 2334
config **.node[68].xCor 3088
config **.node[68].yCor 1505
config **.node[69].xCor 3037
config **.node[69].yCor 1693
config **.node[70].xCor 3026
config **.node[70].yCor 1700
config **.node[71].xCor 3019
config **.node[71].yCor 669
config **.node[72].xCor 3513
config **.node[72].yCor 1358
config **.node[73].xCor 3545
config **.node[73].yCor 1230
config **.node[74].xCor 4228
config **.node[74].yCor 4220
config **.node[75].xCor 3379
config **.node[75].yCor 1207
config **.node[76].xCor 3596
config **.node[76].yCor 963
config **.node[77].xCor 3637
config **.node[77].yCor 1188
config **.node[78].xCor 3759
config **.node[78].yCor 1030
config **.node[79].xCor 2918
config **.node[79].yCor 1455
config **.node[80].xCor 2711
config **.node[80].yCor 1297
config **.node[81].xCor 439
config **.node[81].yCor 1623
config **.node[82].xCor 2857
config **.node[82].yCor 3581
config **.node[83].xCor 2858
config **.node[83].yCor 3584
config **.node[84].xCor 2999
config **.node[84].yCor 2636
config **.node[85].xCor 2905
config **.node[85].yCor 2778
config **.node[86].xCor 2653
config **.node[86].yCor 2845
config **.node[87].xCor 2864
config **.node[87].yCor 2836
config **.node[88].xCor 2426
config **.node[88].yCor 2892
config **.node[89].xCor 2964
config **.node[89].yCor 2804
config **.node[90].xCor 2586
config **.node[90].yCor 3135
config **.node[91].xCor 2864
config **.node[91].yCor 2980
config **.node[92].xCor 2527
config **.node[92].yCor 3219
config **.node[93].xCor 2863
config **.node[93].yCor 3142
config **.node[94].xCor 2485
config **.node[94].yCor 3269
config **.node[95].xCor 2653
config **.node[95].yCor 1065
config **.node[96].xCor 4062
config **.node[96].yCor 400
config **.node[97].xCor 5762
config **.node[97].yCor 3023
config **.node[98].xCor 1414
config **.node[98].yCor 3461
config **.node[99].xCor 2911
config **.node[99].yCor 1737
config **.node[100].xCor 2595
config **.node[100].yCor 2299
config **.node[101].xCor 2702
config **.node[101].yCor 3419
config **.node[102].xCor 2813
config **.node[102].yCor 3307
config **.node[103].xCor 2638
config **.node[103].yCor 2258
config **.node[104].xCor 2590
config **.node[104].yCor 3125
config **.node[105].xCor 1856
config **.node[105].yCor 2990
config **.node[106].xCor 1894
config **.node[106].yCor 2239
config **.node[107].xCor 383
config **.node[107].yCor 1251
config **.node[108].xCor 3447
config **.node[108].yCor 5489
config **.node[109].xCor 3450
config **.node[109].yCor 5697
config **.node[110].xCor 2719
config **.node[110].yCor 1920
config **.node[111].xCor 2085
config **.node[111].yCor 2389
config **.node[112].xCor 1910
config **.node[112].yCor 2548
config **.node[113].xCor 2069
config **.node[113].yCor 2050
config **.node[114].xCor 2184
config **.node[114].yCor 2209
config **.node[115].xCor 2278
config **.node[115].yCor 2390
config **.node[116].xCor 2249
config **.node[116].yCor 2299
config **.node[117].xCor 2356
config **.node[117].yCor 2303
config **.node[118].xCor 2192
config **.node[118].yCor 2475
config **.node[119].xCor 1720
config **.node[119].yCor 2911
config **.node[120].xCor 2400
config **.node[120].yCor 2887
config **.node[121].xCor 3344
config **.node[121].yCor 1890
config **.node[122].xCor 3136
config **.node[122].yCor 2418
config **.node[123].xCor 3243
config **.node[123].yCor 2525
config **.node[124].xCor 2396
config **.node[124].yCor 1267
config **.node[125].xCor 467
config **.node[125].yCor 1875
config **.node[126].xCor 3506
config **.node[126].yCor 1221
config **.node[127].xCor 1034
config **.node[127].yCor 1474
config **.node[128].xCor 2908
config **.node[128].yCor 1784
config **.node[129].xCor 2876
config **.node[129].yCor 1761
config **.node[130].xCor 2849
config **.node[130].yCor 1795
config **.node[131].xCor 3029
config **.node[131].yCor 1859
config **.node[132].xCor 2924
config **.node[132].yCor 1848
config **.node[133].xCor 3493
config **.node[133].yCor 1559
config **.node[134].xCor 2760
config **.node[134].yCor 1761
config **.node[135].xCor 1644
config **.node[135].yCor 3755
config **.node[136].xCor 1463
config **.node[136].yCor 3432
config **.node[137].xCor 2595
config **.node[137].yCor 2849
config **.node[138].xCor 2581
config **.node[138].yCor 2867
config **.node[139].xCor 2524
config **.node[139].yCor 2911
config **.node[140].xCor 2570
config **.node[140].yCor 2924
config **.node[141].xCor 2676
config **.node[141].yCor 2890
config **.node[142].xCor 2666
config **.node[142].yCor 2876
config **.node[143].xCor 3735
config **.node[143].yCor 1726
config **.node[144].xCor 1637
config **.node[144].yCor 3438

vector 0 TaxiNetwork.node[1] visitedPerTimestep ETV
vector 1 TaxiNetwork.node[11] visitedPerTimestep ETV
vector 2 TaxiNetwork.node[139] visitedPerTimestep ETV
vector 3 TaxiNetwork.node[140] visitedPerTimestep ETV
vector 4 TaxiNetwork.node[115] visitedPerTimestep ETV
vector 5 TaxiNetwork.node[7] visitedPerTimestep ETV
vector 6 TaxiNetwork.node[137] visitedPerTimestep ETV
vector 7 TaxiNetwork.node[142] visitedPerTimestep ETV
vector 8 TaxiNetwork.node[103] visitedPerTimestep ETV
vector 9 TaxiNetwork.node[113] visitedPerTimestep ETV
vector 10 TaxiNetwork.node[57] visitedPerTimestep ETV
vector 11 TaxiNetwork.node[52] visitedPerTimestep ETV
vector 12 TaxiNetwork.node[112] visitedPerTimestep ETV
vector 13 TaxiNetwork.node[105] visitedPerTimestep ETV
vector 14 TaxiNetwork.node[53] visitedPerTimestep ETV
vector 15 TaxiNetwork.node[102] visitedPerTimestep ETV
vector 16 TaxiNetwork.node[85] visitedPerTimestep ETV
vector 17 TaxiNetwork.node[45] visitedPerTimestep ETV
vector 18 TaxiNetwork.node[91] visitedPerTimestep ETV
vector 19 TaxiNetwork.node[18] visitedPerTimestep ETV
vector 20 TaxiNetwork.node[87] visitedPerTimestep ETV
vector 21 TaxiNetwork.node[100] visitedPerTimestep ETV
vector 22 TaxiNetwork.node[116] visitedPerTimestep ETV
vector 23 TaxiNetwork.node[13] visitedPerTimestep ETV
vector 24 TaxiNetwork.node[114] visitedPerTimestep ETV
vector 25 TaxiNetwork.node[44] visitedPerTimestep ETV
vector 26 TaxiNetwork.node[117] visitedPerTimestep ETV
vector 27 TaxiNetwork.node[120] visitedPerTimestep ETV
vector 28 TaxiNetwork.node[101] visitedPerTimestep ETV
vector 29 TaxiNetwork.node[27] visitedPerTimestep ETV
vector 30 TaxiNetwork.node[21] visitedPerTimestep ETV
vector 31 TaxiNetwork.node[37] visitedPerTimestep ETV
vector 32 TaxiNetwork.node[33] visitedPerTimestep ETV
vector 33 TaxiNetwork.node[88] visitedPerTimestep ETV
vector 34 TaxiNetwork.node[20] visitedPerTimestep ETV
vector 35 TaxiNetwork.node[93] visitedPerTimestep ETV
vector 36 TaxiNetwork.node[16] visitedPerTimestep ETV
vector 37 TaxiNetwork.node[30] visitedPerTimestep ETV
vector 38 TaxiNetwork.node[15] visitedPerTimestep ETV
vector 39 TaxiNetwork.node[0] visitedPerTimestep ETV
vector 40 TaxiNetwork.node[141] visitedPerTimestep ETV
vector 41 TaxiNetwork.node[123] visitedPerTimestep ETV
vector 42 TaxiNetwork.node[63] visitedPerTimestep ETV
vector 43 TaxiNetwork.node[84] visitedPerTimestep ETV
vector 44 TaxiNetwork.node[90] visitedPerTimestep ETV
vector 45 TaxiNetwork.node[17] visitedPerTimestep ETV
vector 46 TaxiNetwork.node[128] visitedPerTimestep ETV
vector 47 TaxiNetwork.node[122] visitedPerTimestep ETV
vector 48 TaxiNetwork.node[19] visitedPerTimestep ETV
vector 49 TaxiNetwork.node[55] visitedPerTimestep ETV
vector 50 TaxiNetwork.node[94] visitedPerTimestep ETV
vector 51 TaxiNetwork.node[8] visitedPerTimestep ETV
vector 52 TaxiNetwork.node[6] visitedPerTimestep ETV
vector 53 TaxiNetwork.node[118] visitedPerTimestep ETV
vector 54 TaxiNetwork.node[9] visitedPerTimestep ETV
vector 55 TaxiNetwork.node[104] visitedPerTimestep ETV
vector 56 TaxiNetwork.node[89] visitedPerTimestep ETV
vector 57 TaxiNetwork.node[32] visitedPerTimestep ETV
vector 58 TaxiNetwork.node[67] visitedPerTimestep ETV
vector 59 TaxiNetwork.node[36] visitedPerTimestep ETV
vector 60 TaxiNetwork.node[2] visitedPerTimestep ETV
vector 61 TaxiNetwork.node[86] visitedPerTimestep ETV
vector 62 TaxiNetwork.node[3] visitedPerTimestep ETV
vector 63 TaxiNetwork.node[46] visitedPerTimestep ETV
vector 64 TaxiNetwork.node[14] visitedPerTimestep ETV
vector 65 TaxiNetwork.node[5] visitedPerTimestep ETV
vector 66 TaxiNetwork.node[10] visitedPerTimestep ETV
vector 67 TaxiNetwork.node[31] visitedPerTimestep ETV
vector 68 TaxiNetwork.node[92] visitedPerTimestep ETV
vector 69 TaxiNetwork.node[4] visitedPerTimestep ETV
vector 70 TaxiNetwork.node[24] visitedPerTimestep ETV
vector 71 TaxiNetwork.node[26] visitedPerTimestep ETV
vector 72 TaxiNetwork.node[39] visitedPerTimestep ETV
vector 73 TaxiNetwork.node[111] visitedPerTimestep ETV
vector 74 TaxiNetwork.node[131] visitedPerTimestep ETV
vector 75 TaxiNetwork.node[68] visitedPerTimestep ETV
vector 76 TaxiNetwork.node[99] visitedPerTimestep ETV
vector 77 TaxiNetwork.node[82] visitedPerTimestep ETV
vector 78 TaxiNetwork.node[40] visitedPerTimestep ETV
vector 79 TaxiNetwork.node[110] visitedPerTimestep ETV
vector 80 TaxiNetwork.node[134] visitedPerTimestep ETV
vector 81 TaxiNetwork.node[121] visitedPerTimestep ETV
vector 82 TaxiNetwork.node[61] visitedPerTimestep ETV
vector 83 TaxiNetwork.node[143] visitedPerTimestep ETV
vector 84 TaxiNetwork.node[69] visitedPerTimestep ETV
vector 85 TaxiNetwork.node[73] visitedPerTimestep ETV
vector 86 TaxiNetwork.node[72] visitedPerTimestep ETV
vector 87 TaxiNetwork.node[133] visitedPerTimestep ETV
vector 88 TaxiNetwork.node[77] visitedPerTimestep ETV
vector 89 TaxiNetwork.node[76] visitedPerTimestep ETV
vector 90 TaxiNetwork.node[75] visitedPerTimestep ETV
vector 91 TaxiNetwork.node[62] visitedPerTimestep ETV
vector 92 TaxiNetwork.node[132] visitedPerTimestep ETV
vector 93 TaxiNetwork.node[79] visitedPerTimestep ETV
vector 94 TaxiNetwork.node[78] visitedPerTimestep ETV
vector 95 TaxiNetwork.node[58] visitedPerTimestep ETV
vector 96 TaxiNetwork.node[124] visitedPerTimestep ETV
vector 97 TaxiNetwork.node[12] visitedPerTimestep ETV
vector 98 TaxiNetwork.node[83] visitedPerTimestep ETV
vector 99 TaxiNetwork.node[54] visitedPerTimestep ETV
vector 100 TaxiNetwork.node[34] visitedPerTimestep ETV
vector 101 TaxiNetwork.node[22] visitedPerTimestep ETV
vector 102 TaxiNetwork.node[56] visitedPerTimestep ETV
vector 103 TaxiNetwork.node[106] visitedPerTimestep ETV
vector 104 TaxiNetwork.node[29] visitedPerTimestep ETV
vector 105 TaxiNetwork.node[144] visitedPerTimestep ETV
vector 106 TaxiNetwork.node[47] visitedPerTimestep ETV
vector 107 TaxiNetwork.node[98] visitedPerTimestep ETV
vector 108 TaxiNetwork.node[119] visitedPerTimestep ETV
vector 109 TaxiNetwork.node[130] visitedPerTimestep ETV
vector 110 TaxiNetwork.node[70] visitedPerTimestep ETV
vector 111 TaxiNetwork.node[80] visitedPerTimestep ETV
vector 112 TaxiNetwork.node[60] visitedPerTimestep ETV
vector 113 TaxiNetwork.node[71] visitedPerTimestep ETV
vector 114 TaxiNetwork.node[129] visitedPerTimestep ETV
vector 115 TaxiNetwork.node[64] visitedPerTimestep ETV
vector 116 TaxiNetwork.node[126] visitedPerTimestep ETV
vector 117 TaxiNetwork.node[138] visitedPerTimestep ETV
vector 118 TaxiNetwork.node[28] visitedPerTimestep ETV
vector 119 TaxiNetwork.node[51] visitedPerTimestep ETV
vector 120 TaxiNetwork.node[48] visitedPerTimestep ETV
vector 121 TaxiNetwork.node[136] visitedPerTimestep ETV
vector 122 TaxiNetwork.node[59] visitedPerTimestep ETV
vector 123 TaxiNetwork.node[65] visitedPerTimestep ETV
vector 124 TaxiNetwork.node[66] visitedPerTimestep ETV
vector 125 TaxiNetwork.node[23] visitedPerTimestep ETV
vector 126 TaxiNetwork.node[38] visitedPerTimestep ETV
vector 127 TaxiNetwork.node[25] visitedPerTimestep ETV
vector 128 TaxiNetwork.node[41] visitedPerTimestep ETV
vector 129 TaxiNetwork.node[43] visitedPerTimestep ETV
vector 130 TaxiNetwork.node[108] visitedPerTimestep ETV
vector 131 TaxiNetwork.node[42] visitedPerTimestep ETV
vector 132 TaxiNetwork.node[109] visitedPerTimestep ETV
vector 133 TaxiNetwork.node[74] visitedPerTimestep ETV
vector 134 TaxiNetwork.node[96] visitedPerTimestep ETV
vector 135 TaxiNetwork.node[35] visitedPerTimestep ETV
vector 136 TaxiNetwork.node[95] visitedPerTimestep ETV
vector 137 TaxiNetwork.node[135] visitedPerTimestep ETV
vector 138 TaxiNetwork.node[50] visitedPerTimestep ETV
vector 139 TaxiNetwork.node[127] visitedPerTimestep ETV
0	16698 546 1 8352 0 0 44 1 144 5499 729771
1	17244 425 2 8552 0 0 34 2 144 4285 580531
2	17669 620 3 8840 0 0 49 3 144 6485 889799
3	18289 554 4 9280 0 0 45 4 144 5379 712527
4	18843 428 5 9240 0 0 34 5 144 4441 616745
5	19271 600 6 8296 0 0 48 6 144 6151 838559
6	19871 512 7 8032 0 0 41 7 144 5232 714332
7	20383 768 9 9256 0 0 61 8 144 7926 1077412
8	21151 521 10 9128 0 0 42 9 144 5243 701071
9	21672 135 11 7152 0 0 11 10 144 1304 169678
10	21807 160 12 5704 0 0 12 11 144 1429 188607
11	21967 434 13 8760 0 0 32 12 144 4105 564555
12	22401 147 14 5328 0 0 11 13 144 1255 169273
13	22548 162 15 5324 0 0 12 14 144 1504 203662
14	22710 314 17 8416 0 0 23 15 144 3049 421609
15	23024 590 19 9328 0 0 43 16 144 5751 791165
16	23614 494 20 8392 0 0 37 17 144 4536 595814
17	24108 645 21 8168 0 0 48 18 144 5974 793642
18	24753 581 25 9088 0 0 43 19 144 5509 741611
19	25334 599 26 8736 0 0 44 20 144 5764 793102
20	25933 653 27 8536 0 0 48 21 144 6244 844750
21	26586 742 28 9184 0 0 55 22 144 6972 930020
22	27328 268 29 8768 0 0 20 23 144 2426 320954
23	27596 531 30 8928 0 0 39 24 144 5087 698693
24	28127 175 31 6816 0 0 13 25 144 1618 219806
25	28302 581 32 9192 0 0 43 26 144 5446 727108
26	28883 392 33 8664 0 0 29 27 144 3703 494245
27	29275 606 35 9248 0 0 44 28 144 5978 828050
28	29881 471 36 9304 0 0 35 29 144 4425 589203
29	30352 188 37 9024 0 0 14 30 144 1731 230865
30	30540 229 38 8960 0 0 17 31 144 2154 286348
31	30769 270 39 6940 0 0 20 32 144 2562 343988
32	31039 388 40 8208 0 0 29 33 144 3559 464195
33	31427 520 42 9272 0 0 38 34 144 5041 688147
34	31947 614 45 8808 0 0 45 35 144 5942 811972
35	32561 502 47 8512 0 0 37 36 144 4823 655593
36	33063 626 49 8456 0 0 46 37 144 6014 823086
37	33689 569 50 8432 0 0 42 38 144 5419 730321
38	34258 527 51 8048 0 0 39 39 144 5006 671554
39	34785 550 52 8040 0 0 40 40 144 5400 745924
40	35335 559 55 9320 0 0 41 41 144 5357 729101
41	35894 409 56 9072 0 0 30 42 144 3910 536064
42	36303 175 57 6040 0 0 13 43 144 1638 219104
43	36478 485 58 9096 0 0 36 44 144 4526 600532
44	36963 571 59 9264 0 0 42 45 144 5565 752485
45	37534 544 62 9064 0 0 40 46 144 5218 707262
46	38078 130 67 6328 0 0 10 47 144 1173 145489
47	38208 349 68 6888 0 0 26 48 144 3255 425009
48	38557 578 79 9336 0 0 42 49 144 5701 786117
49	39135 390 80 8504 0 0 29 50 144 3642 482742
50	39525 586 81 8264 0 0 43 51 144 5733 783753
51	40111 635 85 9344 0 0 47 52 145 6021 806965
52	40746 546 86 8728 0 0 40 53 144 5285 718297
53	41292 230 89 6672 0 0 17 54 144 2213 297053
54	41522 515 93 7784 0 0 38 55 144 4911 654701
55	42037 612 94 8976 0 0 45 56 144 5889 793293
56	42649 617 104 8920 0 0 45 57 144 6006 823090
57	43266 342 108 7112 0 0 25 58 144 3284 444342
58	43608 147 111 8864 0 0 11 59 144 1379 181925
59	43755 433 114 8376 0 0 32 60 144 4112 550026
60	44188 542 118 8848 0 0 40 61 144 5155 685827
61	44730 502 124 9288 0 0 37 62 144 4752 629112
62	45232 466 125 9120 0 0 34 63 144 4554 624852
63	45698 521 126 8544 0 0 38 64 144 5062 692568
64	46219 568 132 9056 0 0 41 65 144 5611 784573
65	46787 505 134 8000 0 0 37 66 144 4945 672975
66	47292 400 150 9080 0 0 29 67 144 3971 550805
67	47692 260 155 5036 0 0 19 68 144 2528 343164
68	47952 597 159 9312 0 0 44 69 144 5790 774792
69	48549 396 170 8616 0 0 29 70 144 3808 512340
70	48945 150 176 8952 0 0 11 71 144 1463 199573
71	49095 160 178 9008 0 0 12 72 144 1499 192343
72	49255 256 179 6916 0 0 19 73 144 2445 322691
73	49511 289 184 9112 0 0 21 74 144 2866 396634
74	49800 323 201 9200 0 0 24 75 144 3067 403613
75	50123 228 205 9224 0 0 17 76 144 2172 284944
76	50351 233 206 9208 0 0 17 77 144 2302 316342
77	50584 382 224 9032 0 0 28 78 144 3731 503835
78	50966 354 225 8984 0 0 26 79 144 3485 473601
79	51320 274 238 9232 0 0 20 80 144 2674 362988
80	51594 185 247 8672 0 0 14 81 144 1732 221420
81	51779 146 248 7560 0 0 11 82 144 1378 177538
82	51925 335 251 7624 0 0 25 83 144 3228 424668
83	52260 215 252 8872 0 0 16 84 144 2049 270151
84	52475 266 253 8888 0 0 20 85 144 2518 324280
85	52741 176 254 8880 0 0 13 86 144 1744 237394
86	52917 156 256 7648 0 0 12 87 144 1461 182899
87	53073 283 257 7576 0 0 21 88 144 2791 375833
88	53356 145 260 6048 0 0 11 89 144 1398 180458
89	53501 150 261 6108 0 0 11 90 144 1464 197678
90	53651 174 262 7608 0 0 13 91 144 1663 216447
91	53825 218 266 7568 0 0 16 92 144 2176 299144
92	54043 217 267 9168 0 0 16 93 144 2099 279963
93	54260 231 269 9160 0 0 17 94 144 2276 308490
94	54491 162 273 7592 0 0 12 95 144 1609 218483
95	54653 186 277 8784 0 0 14 96 144 1743 222363
96	54839 109 278 6024 0 0 8 97 144 1068 145064
97	54948 481 288 8656 0 0 35 98 144 4761 651673
98	55429 192 301 7712 0 0 14 99 144 1920 265758
99	55621 358 302 9048 0 0 26 100 144 3552 489062
100	55979 378 305 6908 0 0 26 101 144 3449 461837
101	56357 261 308 8992 0 0 18 102 144 2353 311807
102	56618 252 324 6984 0 0 17 103 144 2353 327811
103	56870 73 328 6012 0 0 5 104 144 658 87866
104	56943 204 348 6484 0 0 14 105 144 1843 245411
105	57147 44 381 4976 0 0 3 106 144 391 51853
106	57191 29 382 4980 0 0 2 107 144 251 32185
107	57220 73 383 3796 0 0 5 108 144 657 87329
108	57293 147 384 5408 0 0 10 109 144 1360 186472
109	57440 205 392 6132 0 0 14 110 144 1889 256831
110	57645 145 450 8680 0 0 10 111 144 1320 175904
111	57790 145 453 9144 0 0 10 112 144 1287 167817
112	57935 217 459 6076 0 0 15 113 144 1995 266887
113	58152 58 465 1294 0 0 4 114 137 505 64223
114	58210 310 482 7664 0 0 21 115 144 2919 407177
115	58520 205 493 9216 0 0 14 116 144 1910 261834
116	58725 145 494 7584 0 0 10 117 144 1365 187113
117	58870 685 524 9104 0 0 46 118 144 6474 913182
118	59555 88 529 9000 0 0 6 119 144 819 112443
119	59643 148 697 4992 0 0 10 120 144 1384 192314
120	59791 88 698 4996 0 0 6 121 144 818 112182
121	59879 74 699 5000 0 0 5 122 144 694 96686
122	59953 118 709 8776 0 0 8 123 144 1107 153819
123	60071 101 827 5800 0 0 7 124 144 938 126236
124	60172 119 867 7632 0 0 8 125 144 1123 157949
125	60291 84 900 921 0 0 6 126 133 768 98336
126	60375 115 901 2474 0 0 8 127 143 1075 144847
127	60490 14 907 907 0 0 1 128 128 128 16384
128	60504 57 909 2470 0 0 4 129 143 538 72468
129	60561 42 910 923 0 0 3 130 133 396 52278
130	60603 147 911 2490 0 0 10 131 143 1396 195114
131	60750 71 912 2478 0 0 5 132 143 673 90675
132	60821 115 915 2482 0 0 8 133 143 1090 148656
133	60936 119 930 6524 0 0 8 134 144 1132 160250
134	61055 29 969 4820 0 0 2 135 144 279 38961
135	61084 105 1020 3864 0 0 7 136 144 984 138388
136	61189 30 1288 2994 0 0 2 137 143 280 39218
137	61219 60 1814 4984 0 0 4 142 144 573 82085
138	61279 45 1818 1832 0 0 3 143 143 429 61347
139	61324 15 2016 2016 0 0 1 143 143 143 20449

