version 3
run General-386-20250904-14:13:23-15843
attr configname General
attr datetime 20250904-14:13:23
attr datetimef 20250904-141323
attr experiment General
attr inifile omnetpp.ini
attr iterationvars ""
attr iterationvarsd ""
attr iterationvarsf ""
attr measurement ""
attr network TaxiNetwork
attr processid 15843
attr repetition 386
attr replication #386
attr resultdir results
attr runnumber 386
attr seedset 386
config network TaxiNetwork
config seed-set 386
config num-rngs 1
config sim-time-limit 10s
config repeat 500
config *.numWalkers 1
config *.enableDuplication true
config *.rc 700
config **.node[0].xCor 2933
config **.node[0].yCor 2747
config **.node[1].xCor 2919
config **.node[1].yCor 2817
config **.node[2].xCor 2910
config **.node[2].yCor 2861
config **.node[3].xCor 2429
config **.node[3].yCor 2851
config **.node[4].xCor 2908
config **.node[4].yCor 2714
config **.node[5].xCor 2606
config **.node[5].yCor 2722
config **.node[6].xCor 2575
config **.node[6].yCor 2753
config **.node[7].xCor 2654
config **.node[7].yCor 2513
config **.node[8].xCor 2773
config **.node[8].yCor 2580
config **.node[9].xCor 3043
config **.node[9].yCor 2780
config **.node[10].xCor 3020
config **.node[10].yCor 2813
config **.node[11].xCor 2599
config **.node[11].yCor 2300
config **.node[12].xCor 2917
config **.node[12].yCor 2698
config **.node[13].xCor 2625
config **.node[13].yCor 2641
config **.node[14].xCor 2604
config **.node[14].yCor 2790
config **.node[15].xCor 2786
config **.node[15].yCor 3082
config **.node[16].xCor 2603
config **.node[16].yCor 2802
config **.node[17].xCor 2637
config **.node[17].yCor 2869
config **.node[18].xCor 2675
config **.node[18].yCor 2955
config **.node[19].xCor 2845
config **.node[19].yCor 2937
config **.node[20].xCor 2860
config **.node[20].yCor 2888
config **.node[21].xCor 2843
config **.node[21].yCor 4158
config **.node[22].xCor 2852
config **.node[22].yCor 4017
config **.node[23].xCor 2892
config **.node[23].yCor 4961
config **.node[24].xCor 2313
config **.node[24].yCor 3993
config **.node[25].xCor 2891
config **.node[25].yCor 4959
config **.node[26].xCor 2370
config **.node[26].yCor 4050
config **.node[27].xCor 2788
config **.node[27].yCor 3958
config **.node[28].xCor 2819
config **.node[28].yCor 4428
config **.node[29].xCor 2790
config **.node[29].yCor 3761
config **.node[30].xCor 2809
config **.node[30].yCor 2908
config **.node[31].xCor 2919
config **.node[31].yCor 3575
config **.node[32].xCor 2946
config **.node[32].yCor 3466
config **.node[33].xCor 2911
config **.node[33].yCor 3453
config **.node[34].xCor 2370
config **.node[34].yCor 3656
config **.node[35].xCor 2438
config **.node[35].yCor 3738
config **.node[36].xCor 2737
config **.node[36].yCor 3570
config **.node[37].xCor 2921
config **.node[37].yCor 3698
config **.node[38].xCor 2907
config **.node[38].yCor 5197
config **.node[39].xCor 2860
config **.node[39].yCor 3852
config **.node[40].xCor 2927
config **.node[40].yCor 3684
config **.node[41].xCor 3023
config **.node[41].yCor 5313
config **.node[42].xCor 3220
config **.node[42].yCor 5811
config **.node[43].xCor 3432
config **.node[43].yCor 5715
config **.node[44].xCor 2754
config **.node[44].yCor 2463
config **.node[45].xCor 2646
config **.node[45].yCor 2673
config **.node[46].xCor 3051
config **.node[46].yCor 2792
config **.node[47].xCor 1666
config **.node[47].yCor 3697
config **.node[48].xCor 1662
config **.node[48].yCor 3694
config **.node[49].xCor 1664
config **.node[49].yCor 3667
config **.node[50].xCor 1660
config **.node[50].yCor 3664
config **.node[51].xCor 1710
config **.node[51].yCor 3573
config **.node[52].xCor 2082
config **.node[52].yCor 2650
config **.node[53].xCor 2086
config **.node[53].yCor 2657
config **.node[54].xCor 2257
config **.node[54].yCor 3232
config **.node[55].xCor 2258
config **.node[55].yCor 3225
config **.node[56].xCor 1926
config **.node[56].yCor 2570
config **.node[57].xCor 1926
config **.node[57].yCor 2576
config **.node[58].xCor 2104
config **.node[58].yCor 1758
config **.node[59].xCor 1957
config **.node[59].yCor 1826
config **.node[60].xCor 3473
config **.node[60].yCor 1523
config **.node[61].xCor 3335
config **.node[61].yCor 1726
config **.node[62].xCor 3478
config **.node[62].yCor 1517
config **.node[63].xCor 3386
config **.node[63].yCor 2119
config **.node[64].xCor 3474
config **.node[64].yCor 1762
config **.node[65].xCor 3797
config **.node[65].yCor 2099
config **.node[66].xCor 3642
config **.node[66].yCor 2136
config **.node[67].xCor 3481
config **.node[67].yCor 2334
config **.node[68].xCor 3088
config **.node[68].yCor 1505
config **.node[69].xCor 3037
config **.node[69].yCor 1693
config **.node[70].xCor 3026
config **.node[70].yCor 1700
config **.node[71].xCor 3019
config **.node[71].yCor 669
config **.node[72].xCor 3513
config **.node[72].yCor 1358
config **.node[73].xCor 3545
config **.node[73].yCor 1230
config **.node[74].xCor 4228
config **.node[74].yCor 4220
config **.node[75].xCor 3379
config **.node[75].yCor 1207
config **.node[76].xCor 3596
config **.node[76].yCor 963
config **.node[77].xCor 3637
config **.node[77].yCor 1188
config **.node[78].xCor 3759
config **.node[78].yCor 1030
config **.node[79].xCor 2918
config **.node[79].yCor 1455
config **.node[80].xCor 2711
config **.node[80].yCor 1297
config **.node[81].xCor 439
config **.node[81].yCor 1623
config **.node[82].xCor 2857
config **.node[82].yCor 3581
config **.node[83].xCor 2858
config **.node[83].yCor 3584
config **.node[84].xCor 2999
config **.node[84].yCor 2636
config **.node[85].xCor 2905
config **.node[85].yCor 2778
config **.node[86].xCor 2653
config **.node[86].yCor 2845
config **.node[87].xCor 2864
config **.node[87].yCor 2836
config **.node[88].xCor 2426
config **.node[88].yCor 2892
config **.node[89].xCor 2964
config **.node[89].yCor 2804
config **.node[90].xCor 2586
config **.node[90].yCor 3135
config **.node[91].xCor 2864
config **.node[91].yCor 2980
config **.node[92].xCor 2527
config **.node[92].yCor 3219
config **.node[93].xCor 2863
config **.node[93].yCor 3142
config **.node[94].xCor 2485
config **.node[94].yCor 3269
config **.node[95].xCor 2653
config **.node[95].yCor 1065
config **.node[96].xCor 4062
config **.node[96].yCor 400
config **.node[97].xCor 5762
config **.node[97].yCor 3023
config **.node[98].xCor 1414
config **.node[98].yCor 3461
config **.node[99].xCor 2911
config **.node[99].yCor 1737
config **.node[100].xCor 2595
config **.node[100].yCor 2299
config **.node[101].xCor 2702
config **.node[101].yCor 3419
config **.node[102].xCor 2813
config **.node[102].yCor 3307
config **.node[103].xCor 2638
config **.node[103].yCor 2258
config **.node[104].xCor 2590
config **.node[104].yCor 3125
config **.node[105].xCor 1856
config **.node[105].yCor 2990
config **.node[106].xCor 1894
config **.node[106].yCor 2239
config **.node[107].xCor 383
config **.node[107].yCor 1251
config **.node[108].xCor 3447
config **.node[108].yCor 5489
config **.node[109].xCor 3450
config **.node[109].yCor 5697
config **.node[110].xCor 2719
config **.node[110].yCor 1920
config **.node[111].xCor 2085
config **.node[111].yCor 2389
config **.node[112].xCor 1910
config **.node[112].yCor 2548
config **.node[113].xCor 2069
config **.node[113].yCor 2050
config **.node[114].xCor 2184
config **.node[114].yCor 2209
config **.node[115].xCor 2278
config **.node[115].yCor 2390
config **.node[116].xCor 2249
config **.node[116].yCor 2299
config **.node[117].xCor 2356
config **.node[117].yCor 2303
config **.node[118].xCor 2192
config **.node[118].yCor 2475
config **.node[119].xCor 1720
config **.node[119].yCor 2911
config **.node[120].xCor 2400
config **.node[120].yCor 2887
config **.node[121].xCor 3344
config **.node[121].yCor 1890
config **.node[122].xCor 3136
config **.node[122].yCor 2418
config **.node[123].xCor 3243
config **.node[123].yCor 2525
config **.node[124].xCor 2396
config **.node[124].yCor 1267
config **.node[125].xCor 467
config **.node[125].yCor 1875
config **.node[126].xCor 3506
config **.node[126].yCor 1221
config **.node[127].xCor 1034
config **.node[127].yCor 1474
config **.node[128].xCor 2908
config **.node[128].yCor 1784
config **.node[129].xCor 2876
config **.node[129].yCor 1761
config **.node[130].xCor 2849
config **.node[130].yCor 1795
config **.node[131].xCor 3029
config **.node[131].yCor 1859
config **.node[132].xCor 2924
config **.node[132].yCor 1848
config **.node[133].xCor 3493
config **.node[133].yCor 1559
config **.node[134].xCor 2760
config **.node[134].yCor 1761
config **.node[135].xCor 1644
config **.node[135].yCor 3755
config **.node[136].xCor 1463
config **.node[136].yCor 3432
config **.node[137].xCor 2595
config **.node[137].yCor 2849
config **.node[138].xCor 2581
config **.node[138].yCor 2867
config **.node[139].xCor 2524
config **.node[139].yCor 2911
config **.node[140].xCor 2570
config **.node[140].yCor 2924
config **.node[141].xCor 2676
config **.node[141].yCor 2890
config **.node[142].xCor 2666
config **.node[142].yCor 2876
config **.node[143].xCor 3735
config **.node[143].yCor 1726
config **.node[144].xCor 1637
config **.node[144].yCor 3438

vector 0 TaxiNetwork.node[53] visitedPerTimestep ETV
vector 1 TaxiNetwork.node[118] visitedPerTimestep ETV
vector 2 TaxiNetwork.node[137] visitedPerTimestep ETV
vector 3 TaxiNetwork.node[117] visitedPerTimestep ETV
vector 4 TaxiNetwork.node[142] visitedPerTimestep ETV
vector 5 TaxiNetwork.node[14] visitedPerTimestep ETV
vector 6 TaxiNetwork.node[0] visitedPerTimestep ETV
vector 7 TaxiNetwork.node[100] visitedPerTimestep ETV
vector 8 TaxiNetwork.node[115] visitedPerTimestep ETV
vector 9 TaxiNetwork.node[112] visitedPerTimestep ETV
vector 10 TaxiNetwork.node[120] visitedPerTimestep ETV
vector 11 TaxiNetwork.node[56] visitedPerTimestep ETV
vector 12 TaxiNetwork.node[10] visitedPerTimestep ETV
vector 13 TaxiNetwork.node[4] visitedPerTimestep ETV
vector 14 TaxiNetwork.node[67] visitedPerTimestep ETV
vector 15 TaxiNetwork.node[66] visitedPerTimestep ETV
vector 16 TaxiNetwork.node[123] visitedPerTimestep ETV
vector 17 TaxiNetwork.node[89] visitedPerTimestep ETV
vector 18 TaxiNetwork.node[8] visitedPerTimestep ETV
vector 19 TaxiNetwork.node[44] visitedPerTimestep ETV
vector 20 TaxiNetwork.node[7] visitedPerTimestep ETV
vector 21 TaxiNetwork.node[84] visitedPerTimestep ETV
vector 22 TaxiNetwork.node[9] visitedPerTimestep ETV
vector 23 TaxiNetwork.node[3] visitedPerTimestep ETV
vector 24 TaxiNetwork.node[46] visitedPerTimestep ETV
vector 25 TaxiNetwork.node[33] visitedPerTimestep ETV
vector 26 TaxiNetwork.node[15] visitedPerTimestep ETV
vector 27 TaxiNetwork.node[19] visitedPerTimestep ETV
vector 28 TaxiNetwork.node[16] visitedPerTimestep ETV
vector 29 TaxiNetwork.node[54] visitedPerTimestep ETV
vector 30 TaxiNetwork.node[92] visitedPerTimestep ETV
vector 31 TaxiNetwork.node[140] visitedPerTimestep ETV
vector 32 TaxiNetwork.node[103] visitedPerTimestep ETV
vector 33 TaxiNetwork.node[52] visitedPerTimestep ETV
vector 34 TaxiNetwork.node[139] visitedPerTimestep ETV
vector 35 TaxiNetwork.node[87] visitedPerTimestep ETV
vector 36 TaxiNetwork.node[74] visitedPerTimestep ETV
vector 37 TaxiNetwork.node[2] visitedPerTimestep ETV
vector 38 TaxiNetwork.node[85] visitedPerTimestep ETV
vector 39 TaxiNetwork.node[11] visitedPerTimestep ETV
vector 40 TaxiNetwork.node[55] visitedPerTimestep ETV
vector 41 TaxiNetwork.node[20] visitedPerTimestep ETV
vector 42 TaxiNetwork.node[13] visitedPerTimestep ETV
vector 43 TaxiNetwork.node[35] visitedPerTimestep ETV
vector 44 TaxiNetwork.node[37] visitedPerTimestep ETV
vector 45 TaxiNetwork.node[40] visitedPerTimestep ETV
vector 46 TaxiNetwork.node[29] visitedPerTimestep ETV
vector 47 TaxiNetwork.node[83] visitedPerTimestep ETV
vector 48 TaxiNetwork.node[104] visitedPerTimestep ETV
vector 49 TaxiNetwork.node[32] visitedPerTimestep ETV
vector 50 TaxiNetwork.node[91] visitedPerTimestep ETV
vector 51 TaxiNetwork.node[1] visitedPerTimestep ETV
vector 52 TaxiNetwork.node[106] visitedPerTimestep ETV
vector 53 TaxiNetwork.node[122] visitedPerTimestep ETV
vector 54 TaxiNetwork.node[138] visitedPerTimestep ETV
vector 55 TaxiNetwork.node[45] visitedPerTimestep ETV
vector 56 TaxiNetwork.node[102] visitedPerTimestep ETV
vector 57 TaxiNetwork.node[12] visitedPerTimestep ETV
vector 58 TaxiNetwork.node[30] visitedPerTimestep ETV
vector 59 TaxiNetwork.node[17] visitedPerTimestep ETV
vector 60 TaxiNetwork.node[86] visitedPerTimestep ETV
vector 61 TaxiNetwork.node[57] visitedPerTimestep ETV
vector 62 TaxiNetwork.node[6] visitedPerTimestep ETV
vector 63 TaxiNetwork.node[111] visitedPerTimestep ETV
vector 64 TaxiNetwork.node[105] visitedPerTimestep ETV
vector 65 TaxiNetwork.node[119] visitedPerTimestep ETV
vector 66 TaxiNetwork.node[88] visitedPerTimestep ETV
vector 67 TaxiNetwork.node[18] visitedPerTimestep ETV
vector 68 TaxiNetwork.node[94] visitedPerTimestep ETV
vector 69 TaxiNetwork.node[36] visitedPerTimestep ETV
vector 70 TaxiNetwork.node[22] visitedPerTimestep ETV
vector 71 TaxiNetwork.node[24] visitedPerTimestep ETV
vector 72 TaxiNetwork.node[21] visitedPerTimestep ETV
vector 73 TaxiNetwork.node[82] visitedPerTimestep ETV
vector 74 TaxiNetwork.node[101] visitedPerTimestep ETV
vector 75 TaxiNetwork.node[93] visitedPerTimestep ETV
vector 76 TaxiNetwork.node[90] visitedPerTimestep ETV
vector 77 TaxiNetwork.node[141] visitedPerTimestep ETV
vector 78 TaxiNetwork.node[5] visitedPerTimestep ETV
vector 79 TaxiNetwork.node[131] visitedPerTimestep ETV
vector 80 TaxiNetwork.node[63] visitedPerTimestep ETV
vector 81 TaxiNetwork.node[65] visitedPerTimestep ETV
vector 82 TaxiNetwork.node[133] visitedPerTimestep ETV
vector 83 TaxiNetwork.node[143] visitedPerTimestep ETV
vector 84 TaxiNetwork.node[69] visitedPerTimestep ETV
vector 85 TaxiNetwork.node[60] visitedPerTimestep ETV
vector 86 TaxiNetwork.node[68] visitedPerTimestep ETV
vector 87 TaxiNetwork.node[129] visitedPerTimestep ETV
vector 88 TaxiNetwork.node[70] visitedPerTimestep ETV
vector 89 TaxiNetwork.node[27] visitedPerTimestep ETV
vector 90 TaxiNetwork.node[59] visitedPerTimestep ETV
vector 91 TaxiNetwork.node[113] visitedPerTimestep ETV
vector 92 TaxiNetwork.node[116] visitedPerTimestep ETV
vector 93 TaxiNetwork.node[58] visitedPerTimestep ETV
vector 94 TaxiNetwork.node[97] visitedPerTimestep ETV
vector 95 TaxiNetwork.node[109] visitedPerTimestep ETV
vector 96 TaxiNetwork.node[41] visitedPerTimestep ETV
vector 97 TaxiNetwork.node[23] visitedPerTimestep ETV
vector 98 TaxiNetwork.node[43] visitedPerTimestep ETV
vector 99 TaxiNetwork.node[108] visitedPerTimestep ETV
vector 100 TaxiNetwork.node[42] visitedPerTimestep ETV
vector 101 TaxiNetwork.node[38] visitedPerTimestep ETV
vector 102 TaxiNetwork.node[25] visitedPerTimestep ETV
vector 103 TaxiNetwork.node[28] visitedPerTimestep ETV
vector 104 TaxiNetwork.node[130] visitedPerTimestep ETV
vector 105 TaxiNetwork.node[132] visitedPerTimestep ETV
vector 106 TaxiNetwork.node[64] visitedPerTimestep ETV
vector 107 TaxiNetwork.node[99] visitedPerTimestep ETV
vector 108 TaxiNetwork.node[121] visitedPerTimestep ETV
vector 109 TaxiNetwork.node[75] visitedPerTimestep ETV
vector 110 TaxiNetwork.node[61] visitedPerTimestep ETV
vector 111 TaxiNetwork.node[126] visitedPerTimestep ETV
vector 112 TaxiNetwork.node[34] visitedPerTimestep ETV
vector 113 TaxiNetwork.node[31] visitedPerTimestep ETV
vector 114 TaxiNetwork.node[114] visitedPerTimestep ETV
vector 115 TaxiNetwork.node[110] visitedPerTimestep ETV
vector 116 TaxiNetwork.node[134] visitedPerTimestep ETV
vector 117 TaxiNetwork.node[62] visitedPerTimestep ETV
vector 118 TaxiNetwork.node[76] visitedPerTimestep ETV
vector 119 TaxiNetwork.node[71] visitedPerTimestep ETV
vector 120 TaxiNetwork.node[95] visitedPerTimestep ETV
vector 121 TaxiNetwork.node[39] visitedPerTimestep ETV
vector 122 TaxiNetwork.node[128] visitedPerTimestep ETV
vector 123 TaxiNetwork.node[80] visitedPerTimestep ETV
vector 124 TaxiNetwork.node[77] visitedPerTimestep ETV
vector 125 TaxiNetwork.node[124] visitedPerTimestep ETV
vector 126 TaxiNetwork.node[79] visitedPerTimestep ETV
vector 127 TaxiNetwork.node[51] visitedPerTimestep ETV
vector 128 TaxiNetwork.node[26] visitedPerTimestep ETV
vector 129 TaxiNetwork.node[73] visitedPerTimestep ETV
vector 130 TaxiNetwork.node[72] visitedPerTimestep ETV
vector 131 TaxiNetwork.node[78] visitedPerTimestep ETV
vector 132 TaxiNetwork.node[98] visitedPerTimestep ETV
vector 133 TaxiNetwork.node[49] visitedPerTimestep ETV
vector 134 TaxiNetwork.node[135] visitedPerTimestep ETV
vector 135 TaxiNetwork.node[50] visitedPerTimestep ETV
vector 136 TaxiNetwork.node[48] visitedPerTimestep ETV
vector 137 TaxiNetwork.node[47] visitedPerTimestep ETV
vector 138 TaxiNetwork.node[144] visitedPerTimestep ETV
vector 139 TaxiNetwork.node[127] visitedPerTimestep ETV
0	1	0	1
0	61	0	40
0	67	0	42
0	101	0	54
0	180	0	77
0	305	0	92
0	336	0	93
0	585	0	116
0	703	0	116
0	717	0	116
0	761	0	116
0	836	0	116
0	884	0	121
0	997	0	124
0	1444	0	129
0	1880	0	132
0	2062	0	132
0	2538	0	138
0	3096	0	138
0	3276	0	138
0	3720	0	139
0	3764	0	139
0	7096	0	144
0	7128	0	144
0	7304	0	144
1	2	0	2
1	5	0	4
1	44	0	33
1	140	0	66
1	285	0	90
1	588	0	116
1	617	0	116
1	631	0	116
1	662	0	116
1	722	0	116
1	770	0	116
1	861	0	116
1	1004	0	124
1	1142	0	127
1	1384	0	129
1	1410	0	129
1	1818	0	132
1	1826	0	132
1	1862	0	132
1	1958	0	132
1	2140	0	132
1	2218	0	132
1	2402	0	133
1	2530	0	138
1	2534	0	138
1	2646	0	138
1	2742	0	138
1	2986	0	138
1	4532	0	141
1	5372	0	144
1	5460	0	144
1	6964	0	144
1	6976	0	144
2	3	0	3
2	108	0	56
2	309	0	92
2	323	0	92
2	538	0	116
2	550	0	116
2	566	0	116
2	577	0	116
2	623	0	116
2	633	0	116
2	661	0	116
2	728	0	116
2	740	0	116
2	799	0	116
2	924	0	122
2	1226	0	128
2	1370	0	129
2	1464	0	129
2	1492	0	129
2	2016	0	132
2	2126	0	132
2	2236	0	132
2	2418	0	133
2	2434	0	133
2	2684	0	138
2	2788	0	138
2	2830	0	138
2	2848	0	138
2	3088	0	138
2	3320	0	138
2	3600	0	139
2	3748	0	139
2	4396	0	141
2	4508	0	141
2	4540	0	141
2	4800	0	141
2	4960	0	144
2	5624	0	144
2	5964	0	144
2	5976	0	144
2	6036	0	144
2	7088	0	144
3	4	0	4
3	103	0	54
3	112	0	57
3	128	0	61
3	288	0	92
3	337	0	93
3	720	0	116
3	865	0	116
3	957	0	122
3	963	0	122
3	1470	0	129
3	1792	0	132
3	2078	0	132
3	2164	0	132
3	2176	0	132
3	2210	0	132
3	2620	0	138
3	2772	0	138
3	2786	0	138
3	2974	0	138
3	3208	0	138
3	3280	0	138
3	4660	0	141
3	6948	0	144
4	6	0	5
4	77	0	50
4	179	0	77
4	269	0	89
4	273	0	89
4	513	0	116
4	567	0	116
4	636	0	116
4	778	0	116
4	898	0	122
4	921	0	122
4	1078	0	124
4	1086	0	124
4	1190	0	127
4	2122	0	132
4	2154	0	132
4	2622	0	138
4	2806	0	138
4	3164	0	138
4	3464	0	138
4	3532	0	138
4	4156	0	139
4	4456	0	141
4	4692	0	141
4	5008	0	144
4	5884	0	144
4	5892	0	144
4	6268	0	144
4	6480	0	144
4	6592	0	144
4	7008	0	144
4	7048	0	144
4	7368	0	144
5	7	0	6
5	48	0	35
5	100	0	54
5	173	0	75
5	420	0	104
5	502	0	114
5	529	0	116
5	539	0	116
5	565	0	116
5	621	0	116
5	684	0	116
5	904	0	122
5	930	0	122
5	936	0	122
5	992	0	124
5	1224	0	128
5	1476	0	129
5	1486	0	129
5	1560	0	130
5	1858	0	132
5	1872	0	132
5	2744	0	138
5	2754	0	138
5	2778	0	138
5	2784	0	138
5	2856	0	138
5	2922	0	138
5	2926	0	138
5	2984	0	138
5	3048	0	138
5	3360	0	138
5	3492	0	138
5	3744	0	139
5	4004	0	139
5	4080	0	139
5	4240	0	139
5	5360	0	144
5	5608	0	144
5	5916	0	144
5	6172	0	144
5	6360	0	144
5	6800	0	144
5	6932	0	144
5	6952	0	144
5	7120	0	144
5	7280	0	144
6	8	0	7
6	57	0	39
6	241	0	79
6	325	0	92
6	434	0	104
6	773	0	116
6	817	0	116
6	905	0	122
6	925	0	122
6	941	0	122
6	969	0	122
6	1034	0	124
6	1402	0	129
6	1780	0	132
6	2202	0	132
6	2282	0	132
6	2584	0	138
6	2632	0	138
6	2702	0	138
6	2736	0	138
6	2748	0	138
6	2810	0	138
6	4100	0	139
6	4204	0	139
6	4420	0	141
6	4496	0	141
6	5264	0	144
6	5644	0	144
6	5888	0	144
6	6032	0	144
6	6076	0	144
6	6284	0	144
6	7352	0	144
7	9	0	8
7	687	0	116
7	714	0	116
7	815	0	116
7	848	0	116
7	851	0	116
7	973	0	122
7	1262	0	128
7	1304	0	129
7	1418	0	129
7	1456	0	129
7	1860	0	132
7	1908	0	132
7	2356	0	132
7	2700	0	138
7	2716	0	138
7	2982	0	138
7	3404	0	138
7	3476	0	138
7	3860	0	139
7	4132	0	139
7	4244	0	139
7	4500	0	141
7	4516	0	141
7	4656	0	141
7	4900	0	144
7	5028	0	144
7	5172	0	144
7	5744	0	144
7	6636	0	144
7	6760	0	144
8	10	0	9
8	301	0	92
8	312	0	92
8	510	0	116
8	591	0	116
8	614	0	116
8	618	0	116
8	843	0	116
8	845	0	116
8	987	0	124
8	989	0	124
8	1000	0	124
8	1878	0	132
8	1962	0	132
8	2060	0	132
8	2074	0	132
8	2094	0	132
8	2108	0	132
8	2722	0	138
8	2730	0	138
8	2838	0	138
8	2910	0	138
8	3304	0	138
8	3468	0	138
8	3724	0	139
8	4672	0	141
8	4728	0	141
8	5872	0	144
8	5988	0	144
9	11	0	10
9	317	0	92
9	765	0	116
9	1358	0	129
9	1554	0	130
9	1570	0	130
9	2726	0	138
9	3188	0	138
9	5208	0	144
9	5552	0	144
9	5760	0	144
9	6132	0	144
9	6844	0	144
9	6856	0	144
10	12	0	11
10	14	0	12
10	111	0	57
10	134	0	63
10	282	0	90
10	316	0	92
10	428	0	104
10	432	0	104
10	509	0	116
10	540	0	116
10	552	0	116
10	601	0	116
10	753	0	116
10	768	0	116
10	844	0	116
10	885	0	121
10	922	0	122
10	968	0	122
10	1106	0	124
10	1790	0	132
10	1866	0	132
10	2226	0	132
10	2560	0	138
10	2734	0	138
10	2740	0	138
10	2776	0	138
10	3296	0	138
10	3352	0	138
10	3376	0	138
10	3832	0	139
10	4152	0	139
10	5332	0	144
10	5348	0	144
10	5540	0	144
10	5768	0	144
10	6072	0	144
10	6188	0	144
10	6536	0	144
11	13	0	12
11	126	0	61
11	335	0	93
11	616	0	116
11	746	0	116
11	863	0	116
11	990	0	124
11	999	0	124
11	1354	0	129
11	1496	0	129
11	1556	0	130
11	1960	0	132
11	2180	0	132
11	2208	0	132
11	2770	0	138
11	2880	0	138
11	6852	0	144
11	7160	0	144
12	15	0	13
12	36	0	28
12	40	0	31
12	91	0	53
12	95	0	53
12	238	0	79
12	489	0	113
12	679	0	116
12	803	0	116
12	903	0	122
12	913	0	122
12	1094	0	124
12	1238	0	128
12	1414	0	129
12	1438	0	129
12	1466	0	129
12	1638	0	132
12	1778	0	132
12	2032	0	132
12	2352	0	132
12	2628	0	138
12	2650	0	138
12	2712	0	138
12	2750	0	138
12	3340	0	138
12	3824	0	139
12	4472	0	141
12	5004	0	144
12	5020	0	144
12	5244	0	144
12	5500	0	144
12	5920	0	144
12	6176	0	144
12	6456	0	144
12	7320	0	144
13	16	0	14
13	196	0	78
13	206	0	79
13	225	0	79
13	314	0	92
13	558	0	116
13	727	0	116
13	784	0	116
13	838	0	116
13	1102	0	124
13	1430	0	129
13	1764	0	132
13	2256	0	132
13	2286	0	132
13	2542	0	138
13	2638	0	138
13	2918	0	138
13	3052	0	138
13	3116	0	138
13	3544	0	138
13	4444	0	141
13	4680	0	141
13	5024	0	144
13	5596	0	144
14	17	0	15
14	92	0	53
14	94	0	53
14	248	0	83
14	470	0	112
14	524	0	116
14	628	0	116
14	1278	0	129
14	2708	0	138
14	2818	0	138
14	2824	0	138
14	3700	0	139
14	4352	0	141
14	4808	0	141
14	4816	0	141
14	5092	0	144
14	7408	0	144
15	18	0	16
15	93	0	53
15	260	0	89
15	459	0	111
15	464	0	111
15	627	0	116
15	1978	0	132
15	2820	0	138
15	3680	0	139
15	3696	0	139
15	4844	0	141
15	5096	0	144
15	6884	0	144
15	7384	0	144
15	7400	0	144
16	19	0	17
16	24	0	21
16	56	0	39
16	261	0	89
16	471	0	112
16	482	0	113
16	532	0	116
16	579	0	116
16	607	0	116
16	644	0	116
16	781	0	116
16	787	0	116
16	801	0	116
16	839	0	116
16	1474	0	129
16	1800	0	132
16	1906	0	132
16	2034	0	132
16	2588	0	138
16	2670	0	138
16	2710	0	138
16	2746	0	138
16	2826	0	138
16	3000	0	138
16	3460	0	138
16	3804	0	139
16	4104	0	139
16	4416	0	141
16	4580	0	141
16	5184	0	144
16	5864	0	144
16	6624	0	144
16	6756	0	144
16	6924	0	144
17	20	0	18
17	155	0	69
17	192	0	78
17	265	0	89
17	423	0	104
17	563	0	116
17	629	0	116
17	667	0	116
17	902	0	122
17	933	0	122
17	966	0	122
17	1320	0	129
17	1324	0	129
17	1342	0	129
17	1436	0	129
17	1460	0	129
17	1772	0	132
17	1918	0	132
17	1954	0	132
17	2012	0	132
17	2036	0	132
17	2102	0	132
17	2260	0	132
17	2436	0	133
17	2816	0	138
17	2930	0	138
17	3604	0	139
17	3704	0	139
17	3876	0	139
17	4160	0	139
17	4448	0	141
17	4576	0	141
17	4736	0	141
17	4804	0	141
17	5944	0	144
18	21	0	19
18	90	0	53
18	119	0	59
18	224	0	79
18	292	0	92
18	487	0	113
18	571	0	116
18	819	0	116
18	910	0	122
18	985	0	124
18	1010	0	124
18	1040	0	124
18	1060	0	124
18	1230	0	128
18	1468	0	129
18	1834	0	132
18	1930	0	132
18	2144	0	132
18	2290	0	132
18	2732	0	138
18	2912	0	138
18	3300	0	138
18	4052	0	139
18	4148	0	139
18	4184	0	139
18	4524	0	141
18	4908	0	144
18	5504	0	144
18	5908	0	144
18	5968	0	144
18	6044	0	144
18	6056	0	144
18	6288	0	144
19	22	0	20
19	26	0	22
19	34	0	28
19	42	0	32
19	84	0	52
19	220	0	79
19	242	0	79
19	264	0	89
19	555	0	116
19	643	0	116
19	708	0	116
19	716	0	116
19	725	0	116
19	729	0	116
19	759	0	116
19	912	0	122
19	996	0	124
19	1008	0	124
19	1344	0	129
19	1404	0	129
19	1546	0	130
19	1970	0	132
19	2076	0	132
19	2174	0	132
19	2440	0	133
19	2524	0	137
19	2760	0	138
19	2868	0	138
19	3252	0	138
19	3260	0	138
19	3272	0	138
19	3736	0	139
19	4552	0	141
19	5040	0	144
19	5468	0	144
19	5856	0	144
19	6016	0	144
19	6616	0	144
19	6980	0	144
19	7248	0	144
19	7312	0	144
20	23	0	21
20	136	0	64
20	150	0	67
20	271	0	89
20	302	0	92
20	503	0	114
20	505	0	114
20	554	0	116
20	589	0	116
20	639	0	116
20	663	0	116
20	673	0	116
20	693	0	116
20	718	0	116
20	818	0	116
20	840	0	116
20	1018	0	124
20	1390	0	129
20	1442	0	129
20	1794	0	132
20	1808	0	132
20	1956	0	132
20	2008	0	132
20	2114	0	132
20	2220	0	132
20	2648	0	138
20	2828	0	138
20	3284	0	138
20	3424	0	138
20	3580	0	139
20	3708	0	139
20	4136	0	139
20	4640	0	141
20	5924	0	144
20	6348	0	144
21	25	0	22
21	234	0	79
21	548	0	116
21	800	0	116
21	937	0	122
21	1156	0	127
21	1210	0	128
21	1216	0	128
21	1362	0	129
21	1636	0	132
21	1796	0	132
21	1926	0	132
21	1966	0	132
21	2014	0	132
21	2132	0	132
21	2432	0	133
21	2706	0	138
21	3328	0	138
21	3536	0	138
21	4016	0	139
21	4096	0	139
21	4896	0	144
21	5324	0	144
21	5492	0	144
21	6012	0	144
21	6928	0	144
21	6940	0	144
21	7016	0	144
22	27	0	23
22	31	0	26
22	116	0	59
22	123	0	60
22	186	0	78
22	188	0	78
22	263	0	89
22	294	0	92
22	324	0	92
22	439	0	104
22	441	0	104
22	484	0	113
22	523	0	116
22	562	0	116
22	603	0	116
22	655	0	116
22	775	0	116
22	854	0	116
22	911	0	122
22	1032	0	124
22	1214	0	128
22	1338	0	129
22	1424	0	129
22	1518	0	130
22	1870	0	132
22	2130	0	132
22	2704	0	138
22	2980	0	138
22	3456	0	138
22	4012	0	139
22	4228	0	139
22	4376	0	141
22	4652	0	141
22	4780	0	141
22	4792	0	141
22	5240	0	144
22	5716	0	144
22	6180	0	144
22	6452	0	144
22	7344	0	144
22	7424	0	145
23	28	0	24
23	53	0	38
23	82	0	52
23	132	0	63
23	204	0	79
23	222	0	79
23	311	0	92
23	341	0	94
23	654	0	116
23	731	0	116
23	857	0	116
23	860	0	116
23	883	0	121
23	955	0	122
23	1006	0	124
23	1062	0	124
23	1082	0	124
23	1100	0	124
23	1412	0	129
23	1576	0	130
23	1836	0	132
23	2026	0	132
23	2162	0	132
23	2182	0	132
23	2206	0	132
23	2316	0	132
23	2540	0	138
23	2850	0	138
23	2946	0	138
23	3204	0	138
23	3344	0	138
23	3740	0	139
23	4140	0	139
23	4424	0	141
23	4536	0	141
23	5204	0	144
23	5216	0	144
23	5284	0	144
23	5472	0	144
23	5732	0	144
23	5752	0	144
23	5764	0	144
23	5900	0	144
23	5932	0	144
23	5984	0	144
23	6120	0	144
23	6448	0	144
23	6552	0	144
23	6936	0	144
24	29	0	25
24	59	0	40
24	65	0	42
24	197	0	78
24	236	0	79
24	262	0	89
24	267	0	89
24	481	0	113
24	492	0	113
24	564	0	116
24	634	0	116
24	647	0	116
24	666	0	116
24	695	0	116
24	809	0	116
24	822	0	116
24	825	0	116
24	908	0	122
24	938	0	122
24	1016	0	124
24	1068	0	124
24	1380	0	129
24	1434	0	129
24	1450	0	129
24	1770	0	132
24	1802	0	132
24	2010	0	132
24	2098	0	132
24	2288	0	132
24	2298	0	132
24	2808	0	138
24	2874	0	138
24	3028	0	138
24	3044	0	138
24	3128	0	138
24	3572	0	139
24	4056	0	139
24	4460	0	141
24	4632	0	141
24	4904	0	144
24	6796	0	144
24	7056	0	144
24	7416	0	144
25	30	0	26
25	152	0	67
25	169	0	75
25	308	0	92
25	477	0	112
25	604	0	116
25	668	0	116
25	691	0	116
25	887	0	121
25	949	0	122
25	1022	0	124
25	1162	0	127
25	1194	0	127
25	1610	0	132
25	1934	0	132
25	2552	0	138
25	2654	0	138
25	2658	0	138
25	3392	0	138
25	3436	0	138
25	3872	0	139
25	4064	0	139
25	4368	0	141
25	4452	0	141
25	4568	0	141
25	4924	0	144
25	4948	0	144
25	5424	0	144
25	5436	0	144
25	5788	0	144
25	6340	0	144
25	6468	0	144
25	6504	0	144
25	6520	0	144
25	6988	0	144
25	6996	0	144
25	7264	0	144
26	32	0	27
26	35	0	28
26	172	0	75
26	491	0	113
26	543	0	116
26	556	0	116
26	605	0	116
26	795	0	116
26	920	0	122
26	926	0	122
26	1196	0	127
26	1388	0	129
26	1452	0	129
26	1920	0	132
26	2040	0	132
26	2156	0	132
26	2204	0	132
26	2424	0	133
26	2520	0	135
26	2626	0	138
26	2938	0	138
26	3108	0	138
26	3132	0	138
26	3156	0	138
26	3416	0	138
26	3732	0	139
26	4928	0	144
26	4996	0	144
26	5392	0	144
26	5844	0	144
26	6040	0	144
26	6104	0	144
27	33	0	28
27	157	0	69
27	194	0	78
27	237	0	79
27	422	0	104
27	427	0	104
27	440	0	104
27	485	0	113
27	490	0	113
27	493	0	113
27	530	0	116
27	625	0	116
27	651	0	116
27	802	0	116
27	833	0	116
27	1072	0	124
27	1080	0	124
27	1374	0	129
27	1640	0	132
27	1854	0	132
27	2344	0	132
27	2574	0	138
27	2866	0	138
27	2902	0	138
27	3220	0	138
27	3380	0	138
27	3452	0	138
27	3540	0	138
27	3556	0	139
27	3756	0	139
27	3856	0	139
27	4072	0	139
27	4932	0	144
27	4940	0	144
27	5176	0	144
27	5388	0	144
27	5912	0	144
27	6772	0	144
27	7192	0	144
27	7232	0	144
28	37	0	29
28	272	0	89
28	474	0	112
28	512	0	116
28	537	0	116
28	645	0	116
28	709	0	116
28	755	0	116
28	821	0	116
28	832	0	116
28	855	0	116
28	923	0	122
28	1084	0	124
28	1308	0	129
28	1340	0	129
28	1382	0	129
28	1454	0	129
28	1626	0	132
28	1776	0	132
28	1806	0	132
28	1876	0	132
28	1968	0	132
28	2134	0	132
28	2264	0	132
28	2296	0	132
28	2668	0	138
28	2780	0	138
28	2798	0	138
28	2844	0	138
28	2932	0	138
28	2940	0	138
28	3124	0	138
28	3292	0	138
28	4144	0	139
28	5260	0	144
28	5604	0	144
28	5868	0	144
28	5972	0	144
28	6168	0	144
28	6804	0	144
28	6820	0	144
28	7184	0	144
29	38	0	30
29	46	0	34
29	69	0	43
29	110	0	57
29	229	0	79
29	310	0	92
29	351	0	94
29	499	0	114
29	669	0	116
29	683	0	116
29	856	0	116
29	858	0	116
29	1134	0	127
29	1564	0	130
29	1786	0	132
29	2020	0	132
29	2192	0	132
29	3504	0	138
29	3836	0	139
29	4704	0	141
29	4760	0	141
29	5628	0	144
29	6532	0	144
29	6824	0	144
30	39	0	31
30	98	0	54
30	195	0	78
30	349	0	94
30	424	0	104
30	437	0	104
30	678	0	116
30	1092	0	124
30	1516	0	130
30	2054	0	132
30	2068	0	132
30	2100	0	132
30	2238	0	132
30	2580	0	138
30	2660	0	138
30	2752	0	138
30	2960	0	138
30	3792	0	139
30	3840	0	139
30	4464	0	141
30	4484	0	141
30	5248	0	144
30	5428	0	144
30	5532	0	144
30	5956	0	144
30	6476	0	144
31	41	0	32
31	62	0	40
31	199	0	78
31	221	0	79
31	240	0	79
31	313	0	92
31	315	0	92
31	352	0	94
31	426	0	104
31	480	0	113
31	500	0	114
31	664	0	116
31	738	0	116
31	760	0	116
31	805	0	116
31	816	0	116
31	993	0	124
31	1096	0	124
31	1202	0	127
31	1206	0	127
31	1256	0	128
31	1378	0	129
31	1458	0	129
31	1762	0	132
31	2038	0	132
31	2304	0	132
31	2526	0	137
31	3112	0	138
31	3472	0	138
31	3528	0	138
31	4068	0	139
31	4436	0	141
31	4644	0	141
31	4684	0	141
31	4768	0	141
31	4788	0	141
31	4796	0	141
31	5196	0	144
31	5320	0	144
31	5368	0	144
31	5448	0	144
31	5456	0	144
31	5560	0	144
31	5580	0	144
31	5748	0	144
31	6064	0	144
31	6296	0	144
31	6344	0	144
31	7136	0	144
32	43	0	33
32	60	0	40
32	104	0	54
32	118	0	59
32	189	0	78
32	443	0	104
32	473	0	112
32	508	0	116
32	518	0	116
32	580	0	116
32	811	0	116
32	813	0	116
32	878	0	121
32	1026	0	124
32	1114	0	124
32	1146	0	127
32	1300	0	129
32	1312	0	129
32	1520	0	130
32	1972	0	132
32	2006	0	132
32	2258	0	132
32	2386	0	133
32	2698	0	138
32	2876	0	138
32	3372	0	138
32	3496	0	138
32	3512	0	138
32	3908	0	139
32	3992	0	139
32	4892	0	144
32	5272	0	144
32	5364	0	144
32	5876	0	144
32	5992	0	144
32	6052	0	144
32	6292	0	144
32	6644	0	144
32	6752	0	144
32	6920	0	144
32	7328	0	144
33	45	0	34
33	87	0	52
33	89	0	53
33	125	0	61
33	181	0	77
33	298	0	92
33	320	0	92
33	331	0	93
33	355	0	94
33	475	0	112
33	551	0	116
33	568	0	116
33	593	0	116
33	952	0	122
33	998	0	124
33	1140	0	127
33	1346	0	129
33	1352	0	129
33	1420	0	129
33	1480	0	129
33	1484	0	129
33	1820	0	132
33	1914	0	132
33	2142	0	132
33	2276	0	132
33	2888	0	138
33	3508	0	138
33	4556	0	141
33	4752	0	141
33	5548	0	144
33	5556	0	144
33	6192	0	144
33	6252	0	144
33	6444	0	144
34	47	0	35
34	137	0	64
34	235	0	79
34	343	0	94
34	418	0	104
34	436	0	104
34	511	0	116
34	541	0	116
34	602	0	116
34	632	0	116
34	642	0	116
34	659	0	116
34	688	0	116
34	707	0	116
34	777	0	116
34	791	0	116
34	1030	0	124
34	1064	0	124
34	1218	0	128
34	1448	0	129
34	1562	0	130
34	1756	0	132
34	1822	0	132
34	1828	0	132
34	1916	0	132
34	2148	0	132
34	2200	0	132
34	2234	0	132
34	2292	0	132
34	2404	0	133
34	2578	0	138
34	2640	0	138
34	2676	0	138
34	2686	0	138
34	2890	0	138
34	2904	0	138
34	3100	0	138
34	3420	0	138
34	3488	0	138
34	4060	0	139
34	4172	0	139
34	4192	0	139
34	4380	0	141
34	4528	0	141
34	4676	0	141
34	5192	0	144
34	5236	0	144
34	5256	0	144
34	5376	0	144
34	5940	0	144
34	6008	0	144
34	6540	0	144
34	6960	0	144
34	7296	0	144
35	49	0	36
35	51	0	37
35	54	0	38
35	85	0	52
35	122	0	60
35	223	0	79
35	359	0	94
35	438	0	104
35	561	0	116
35	685	0	116
35	752	0	116
35	776	0	116
35	853	0	116
35	915	0	122
35	919	0	122
35	975	0	122
35	1426	0	129
35	1910	0	132
35	2558	0	138
35	2682	0	138
35	3364	0	138
35	3400	0	138
35	4404	0	141
35	4432	0	141
35	4468	0	141
35	4636	0	141
35	5252	0	144
35	5280	0	144
35	5488	0	144
35	5584	0	144
35	5724	0	144
35	6028	0	144
35	6584	0	144
35	6600	0	144
35	7024	0	144
35	7240	0	144
36	50	0	37
36	166	0	74
36	360	0	94
36	362	0	95
36	918	0	122
36	1644	0	132
36	5696	0	144
36	5704	0	144
37	52	0	38
37	190	0	78
37	431	0	104
37	522	0	116
37	743	0	116
37	796	0	116
37	1372	0	129
37	1376	0	129
37	1798	0	132
37	2590	0	138
37	2800	0	138
37	2894	0	138
37	2942	0	138
37	3104	0	138
37	3136	0	138
37	4232	0	139
37	4936	0	144
37	4944	0	144
37	4952	0	144
37	5340	0	144
37	5352	0	144
37	5512	0	144
37	5720	0	144
37	5948	0	144
37	6000	0	144
38	55	0	39
38	115	0	59
38	146	0	67
38	208	0	79
38	433	0	104
38	544	0	116
38	572	0	116
38	737	0	116
38	782	0	116
38	820	0	116
38	954	0	122
38	1220	0	128
38	1240	0	128
38	1428	0	129
38	1580	0	130
38	2030	0	132
38	2308	0	132
38	2998	0	138
38	3288	0	138
38	3408	0	138
38	3576	0	139
38	4176	0	139
38	4548	0	141
38	4968	0	144
38	5576	0	144
38	5712	0	144
38	6020	0	144
38	6916	0	144
39	58	0	40
39	66	0	42
39	83	0	52
39	332	0	93
39	419	0	104
39	535	0	116
39	569	0	116
39	612	0	116
39	724	0	116
39	726	0	116
39	744	0	116
39	771	0	116
39	785	0	116
39	978	0	122
39	1036	0	124
39	1130	0	127
39	1144	0	127
39	1204	0	127
39	1408	0	129
39	1814	0	132
39	1824	0	132
39	2058	0	132
39	2306	0	132
39	2392	0	133
39	2438	0	133
39	2516	0	133
39	2528	0	137
39	2612	0	138
39	2694	0	138
39	2762	0	138
39	2916	0	138
39	2934	0	138
39	2978	0	138
39	3004	0	138
39	3172	0	138
39	3608	0	139
39	3892	0	139
39	4000	0	139
39	4512	0	141
39	4784	0	141
39	5276	0	144
39	5736	0	144
39	5896	0	144
39	6004	0	144
39	6164	0	144
39	6440	0	144
39	6588	0	144
39	6908	0	144
39	7144	0	144
40	63	0	41
40	203	0	79
40	228	0	79
40	304	0	92
40	584	0	116
40	798	0	116
40	927	0	122
40	1152	0	127
40	1478	0	129
40	1574	0	130
40	1844	0	132
40	2064	0	132
40	2150	0	132
40	2348	0	132
40	2420	0	133
40	2568	0	138
40	2642	0	138
40	2678	0	138
40	2842	0	138
40	2852	0	138
40	2990	0	138
40	3036	0	138
40	3076	0	138
40	3084	0	138
40	3160	0	138
40	4044	0	139
40	4720	0	141
40	6112	0	144
40	6472	0	144
40	7224	0	144
40	7272	0	144
41	64	0	42
41	145	0	67
41	266	0	89
41	279	0	90
41	296	0	92
41	657	0	116
41	741	0	116
41	1784	0	132
41	2028	0	132
41	2124	0	132
41	2242	0	132
41	2350	0	132
41	2570	0	138
41	2664	0	138
41	2690	0	138
41	3120	0	138
41	3356	0	138
41	3484	0	138
41	3552	0	139
41	3564	0	139
41	3800	0	139
41	3868	0	139
41	4084	0	139
41	4236	0	139
41	4384	0	141
41	4764	0	141
41	5188	0	144
41	5380	0	144
41	5572	0	144
41	5952	0	144
41	6620	0	144
41	6792	0	144
42	68	0	43
42	86	0	52
42	185	0	78
42	198	0	78
42	219	0	79
42	239	0	79
42	303	0	92
42	677	0	116
42	697	0	116
42	710	0	116
42	757	0	116
42	831	0	116
42	842	0	116
42	940	0	122
42	1088	0	124
42	1366	0	129
42	1406	0	129
42	1832	0	132
42	2080	0	132
42	2104	0	132
42	2188	0	132
42	2412	0	133
42	3548	0	138
42	3780	0	139
42	3884	0	139
42	4224	0	139
42	4360	0	141
42	4724	0	141
42	4956	0	144
42	5384	0	144
42	6080	0	144
42	6364	0	144
42	7064	0	144
43	70	0	44
43	160	0	70
43	210	0	79
43	597	0	116
43	892	0	122
43	943	0	122
43	1166	0	127
43	1946	0	132
43	2052	0	132
43	2962	0	138
43	3072	0	138
43	4032	0	139
43	5528	0	144
43	5632	0	144
43	5828	0	144
43	6500	0	144
44	71	0	45
44	215	0	79
44	348	0	94
44	793	0	116
44	828	0	116
44	894	0	122
44	1184	0	127
44	1584	0	130
44	1940	0	132
44	2046	0	132
44	3064	0	138
44	3432	0	138
44	5520	0	144
44	5840	0	144
45	72	0	46
45	415	0	104
45	944	0	122
45	1252	0	128
45	1506	0	130
45	1620	0	132
45	2044	0	132
45	2964	0	138
45	3844	0	139
45	4920	0	144
45	5304	0	144
45	5432	0	144
45	5800	0	144
46	73	0	47
46	216	0	79
46	276	0	89
46	416	0	104
46	598	0	116
46	947	0	122
46	1604	0	132
46	1848	0	132
46	1944	0	132
46	2332	0	132
46	2336	0	132
46	3848	0	139
46	5420	0	144
46	5660	0	144
46	5792	0	144
46	5812	0	144
46	5820	0	144
46	6492	0	144
47	74	0	48
47	164	0	73
47	494	0	113
47	1164	0	127
47	1248	0	128
47	1334	0	129
47	1616	0	132
47	1622	0	132
47	1842	0	132
47	2170	0	132
47	2342	0	132
47	3144	0	138
47	6100	0	144
48	75	0	49
48	80	0	52
48	99	0	54
48	121	0	60
48	149	0	67
48	158	0	69
48	270	0	89
48	322	0	92
48	354	0	94
48	574	0	116
48	600	0	116
48	824	0	116
48	896	0	122
48	899	0	122
48	901	0	122
48	942	0	122
48	1066	0	124
48	1192	0	127
48	1208	0	127
48	1392	0	129
48	1396	0	129
48	1758	0	132
48	1804	0	132
48	1942	0	132
48	2310	0	132
48	2318	0	132
48	2796	0	138
48	2858	0	138
48	2958	0	138
48	3012	0	138
48	3056	0	138
48	3312	0	138
48	3384	0	138
48	3588	0	139
48	3596	0	139
48	4756	0	141
48	5516	0	144
48	5544	0	144
48	5652	0	144
48	5980	0	144
48	6280	0	144
48	6528	0	144
48	7360	0	144
49	76	0	50
49	212	0	79
49	268	0	89
49	479	0	113
49	573	0	116
49	610	0	116
49	751	0	116
49	1236	0	128
49	1254	0	128
49	1318	0	129
49	1322	0	129
49	1514	0	130
49	1952	0	132
49	2042	0	132
49	2198	0	132
49	2624	0	138
49	3396	0	138
49	4916	0	144
49	5848	0	144
49	6608	0	144
50	78	0	51
50	81	0	52
50	171	0	75
50	187	0	78
50	280	0	90
50	496	0	114
50	514	0	116
50	638	0	116
50	674	0	116
50	730	0	116
50	733	0	116
50	774	0	116
50	826	0	116
50	907	0	122
50	917	0	122
50	970	0	122
50	1180	0	127
50	1368	0	129
50	1624	0	132
50	2158	0	132
50	2254	0	132
50	2262	0	132
50	2562	0	138
50	2652	0	138
50	2662	0	138
50	2872	0	138
50	2928	0	138
50	3148	0	138
50	3268	0	138
50	3388	0	138
50	3784	0	139
50	4220	0	139
50	4912	0	144
50	5336	0	144
50	5568	0	144
50	5588	0	144
50	5612	0	144
50	5648	0	144
50	6068	0	144
50	6776	0	144
50	6784	0	144
50	7256	0	144
51	79	0	52
51	97	0	54
51	107	0	56
51	148	0	67
51	151	0	67
51	170	0	75
51	345	0	94
51	358	0	94
51	570	0	116
51	578	0	116
51	581	0	116
51	624	0	116
51	650	0	116
51	675	0	116
51	742	0	116
51	756	0	116
51	788	0	116
51	823	0	116
51	852	0	116
51	950	0	122
51	1024	0	124
51	1160	0	127
51	1310	0	129
51	1754	0	132
51	1766	0	132
51	1868	0	132
51	1924	0	132
51	2314	0	132
51	2630	0	138
51	3168	0	138
51	3560	0	139
51	3812	0	139
51	4492	0	141
51	5484	0	144
51	5904	0	144
51	7288	0	144
52	88	0	53
52	102	0	54
52	127	0	61
52	129	0	61
52	141	0	66
52	319	0	92
52	334	0	93
52	339	0	94
52	586	0	116
52	592	0	116
52	702	0	116
52	763	0	116
52	2088	0	132
52	2178	0	132
52	2216	0	132
52	2728	0	138
53	96	0	54
53	117	0	59
53	293	0	92
53	421	0	104
53	472	0	112
53	525	0	116
53	531	0	116
53	533	0	116
53	560	0	116
53	626	0	116
53	652	0	116
53	696	0	116
53	2442	0	133
53	2572	0	138
53	2586	0	138
53	2592	0	138
53	3224	0	138
53	3808	0	139
53	4356	0	141
53	4408	0	141
53	4520	0	141
53	4628	0	141
53	4888	0	144
53	5012	0	144
53	5048	0	144
53	5072	0	144
53	5228	0	144
53	5508	0	144
53	5600	0	144
53	6372	0	144
53	6580	0	144
53	7376	0	144
54	105	0	55
54	326	0	92
54	328	0	92
54	342	0	94
54	346	0	94
54	356	0	94
54	430	0	104
54	497	0	114
54	613	0	116
54	656	0	116
54	719	0	116
54	748	0	116
54	758	0	116
54	772	0	116
54	783	0	116
54	789	0	116
54	849	0	116
54	886	0	121
54	1110	0	124
54	1326	0	129
54	1774	0	132
54	2056	0	132
54	2414	0	133
54	2554	0	138
54	2720	0	138
54	2794	0	138
54	2950	0	138
54	3040	0	138
54	3080	0	138
54	4364	0	141
54	4372	0	141
54	4716	0	141
54	4776	0	141
54	4964	0	144
54	4976	0	144
54	4992	0	144
54	5996	0	144
54	6024	0	144
55	106	0	56
55	200	0	78
55	226	0	79
55	521	0	116
55	559	0	116
55	732	0	116
55	786	0	116
55	932	0	122
55	951	0	122
55	953	0	122
55	965	0	122
55	1394	0	129
55	1788	0	132
55	2070	0	132
55	2118	0	132
55	2184	0	132
55	2232	0	132
55	2244	0	132
55	2536	0	138
55	2802	0	138
55	2814	0	138
55	2840	0	138
55	2870	0	138
55	2906	0	138
55	2936	0	138
55	2970	0	138
55	2988	0	138
55	3728	0	139
55	3776	0	139
55	3816	0	139
55	4008	0	139
55	4440	0	141
55	4696	0	141
55	6108	0	144
55	6556	0	144
55	6956	0	144
55	6968	0	144
55	7072	0	144
55	7104	0	144
55	7208	0	144
56	109	0	57
56	201	0	78
56	278	0	90
56	501	0	114
56	549	0	116
56	576	0	116
56	595	0	116
56	797	0	116
56	804	0	116
56	806	0	116
56	827	0	116
56	897	0	122
56	914	0	122
56	916	0	122
56	946	0	122
56	1074	0	124
56	1328	0	129
56	1398	0	129
56	1642	0	132
56	1752	0	132
56	1782	0	132
56	1830	0	132
56	1846	0	132
56	2128	0	132
56	2190	0	132
56	2246	0	132
56	2252	0	132
56	2346	0	132
56	2422	0	133
56	2636	0	138
56	2674	0	138
56	2854	0	138
56	2944	0	138
56	2992	0	138
56	3020	0	138
56	3880	0	139
56	4428	0	141
56	5000	0	144
56	5536	0	144
56	5640	0	144
56	6488	0	144
56	7080	0	144
57	113	0	58
57	147	0	67
57	205	0	79
57	281	0	90
57	289	0	92
57	425	0	104
57	515	0	116
57	546	0	116
57	553	0	116
57	676	0	116
57	780	0	116
57	807	0	116
57	850	0	116
57	909	0	122
57	939	0	122
57	994	0	124
57	1090	0	124
57	2428	0	133
57	2738	0	138
57	2804	0	138
57	3316	0	138
57	3820	0	139
57	4168	0	139
57	4412	0	141
57	4648	0	141
57	4980	0	144
57	5016	0	144
57	5180	0	144
57	5200	0	144
57	5344	0	144
57	7032	0	144
57	7200	0	144
58	114	0	59
58	193	0	78
58	231	0	79
58	357	0	94
58	517	0	116
58	519	0	116
58	542	0	116
58	608	0	116
58	749	0	116
58	1020	0	124
58	1112	0	124
58	1154	0	127
58	1176	0	127
58	1212	0	128
58	1258	0	128
58	1336	0	129
58	1462	0	129
58	1632	0	132
58	2168	0	132
58	2302	0	132
58	2782	0	138
58	2914	0	138
58	3324	0	138
58	3480	0	138
58	3864	0	139
58	4020	0	139
58	4092	0	139
58	4564	0	141
58	5400	0	144
58	5452	0	144
58	6612	0	144
58	6628	0	144
58	6764	0	144
58	6828	0	144
59	120	0	60
59	191	0	78
59	227	0	79
59	350	0	94
59	488	0	113
59	526	0	116
59	545	0	116
59	606	0	116
59	641	0	116
59	653	0	116
59	665	0	116
59	692	0	116
59	810	0	116
59	995	0	124
59	1306	0	129
59	1364	0	129
59	1422	0	129
59	1432	0	129
59	1630	0	132
59	1768	0	132
59	1852	0	132
59	1856	0	132
59	1874	0	132
59	1936	0	132
59	2018	0	132
59	2166	0	132
59	2268	0	132
59	2408	0	133
59	2564	0	138
59	2774	0	138
59	2898	0	138
59	3332	0	138
59	3760	0	139
59	4048	0	139
59	4488	0	141
59	4732	0	141
59	4984	0	144
59	5268	0	144
59	5860	0	144
59	6632	0	144
60	124	0	61
60	183	0	78
60	290	0	92
60	297	0	92
60	321	0	92
60	646	0	116
60	660	0	116
60	754	0	116
60	814	0	116
60	934	0	122
60	956	0	122
60	1108	0	124
60	1198	0	127
60	1348	0	129
60	1472	0	129
60	1838	0	132
60	1864	0	132
60	1932	0	132
60	2266	0	132
60	2270	0	132
60	2300	0	132
60	2544	0	138
60	2582	0	138
60	2976	0	138
60	3264	0	138
60	3308	0	138
60	3336	0	138
60	3516	0	138
60	3888	0	139
60	4700	0	141
60	5616	0	144
60	5852	0	144
60	6060	0	144
60	6368	0	144
60	6484	0	144
60	6768	0	144
60	6780	0	144
60	6992	0	144
61	130	0	62
61	133	0	63
61	587	0	116
61	699	0	116
61	701	0	116
61	705	0	116
61	762	0	116
61	882	0	121
61	988	0	124
61	1356	0	129
61	2086	0	132
61	2138	0	132
61	2224	0	132
61	2274	0	132
61	2766	0	138
61	2836	0	138
61	3192	0	138
61	3348	0	138
61	4196	0	139
61	6548	0	144
61	6564	0	144
61	6860	0	144
62	131	0	63
62	274	0	89
62	327	0	92
62	528	0	116
62	536	0	116
62	557	0	116
62	630	0	116
62	670	0	116
62	739	0	116
62	834	0	116
62	864	0	116
62	1014	0	124
62	1132	0	127
62	1260	0	128
62	1488	0	129
62	1494	0	129
62	1816	0	132
62	1964	0	132
62	2160	0	132
62	2228	0	132
62	2354	0	132
62	2406	0	133
62	2566	0	138
62	2812	0	138
62	3196	0	138
62	3520	0	138
62	4212	0	139
62	4388	0	141
62	4560	0	141
62	5476	0	144
62	6944	0	144
63	135	0	64
63	142	0	66
63	283	0	90
63	299	0	92
63	318	0	92
63	330	0	93
63	333	0	93
63	340	0	94
63	429	0	104
63	615	0	116
63	706	0	116
63	713	0	116
63	723	0	116
63	747	0	116
63	790	0	116
63	846	0	116
63	964	0	122
63	1548	0	130
63	1568	0	130
63	2072	0	132
63	2082	0	132
63	2106	0	132
63	2112	0	132
63	2136	0	132
63	2394	0	133
63	2400	0	133
63	2614	0	138
63	2696	0	138
63	2718	0	138
63	2884	0	138
63	2908	0	138
63	3092	0	138
63	3712	0	139
63	4712	0	141
63	4744	0	141
63	6256	0	144
63	7176	0	144
64	138	0	65
64	143	0	66
64	284	0	90
64	767	0	116
64	928	0	122
64	1482	0	129
64	2278	0	132
64	4708	0	141
64	4748	0	141
64	5756	0	144
64	6116	0	144
64	6196	0	144
64	6248	0	144
64	6304	0	144
64	6332	0	144
64	7168	0	144
65	139	0	66
65	700	0	116
65	764	0	116
65	862	0	116
65	1498	0	129
65	1566	0	130
65	1572	0	130
65	2084	0	132
65	2532	0	138
65	2886	0	138
65	6324	0	144
66	144	0	67
66	233	0	79
66	504	0	114
66	594	0	116
66	694	0	116
66	766	0	116
66	769	0	116
66	1138	0	127
66	1314	0	129
66	1350	0	129
66	1360	0	129
66	1558	0	130
66	2022	0	132
66	2280	0	132
66	2556	0	138
66	2680	0	138
66	2714	0	138
66	2724	0	138
66	2892	0	138
66	3212	0	138
66	3788	0	139
66	3828	0	139
66	4188	0	139
66	4216	0	139
66	4740	0	141
66	4972	0	144
66	5928	0	144
66	6128	0	144
66	6260	0	144
66	6812	0	144
66	6840	0	144
66	6912	0	144
66	6972	0	144
66	7112	0	144
67	153	0	68
67	156	0	69
67	178	0	77
67	213	0	79
67	230	0	79
67	672	0	116
67	686	0	116
67	972	0	122
67	977	0	122
67	1098	0	124
67	1150	0	127
67	1386	0	129
67	1416	0	129
67	1634	0	132
67	2096	0	132
67	2230	0	132
67	2550	0	138
67	2634	0	138
67	2644	0	138
67	2758	0	138
67	2790	0	138
67	2846	0	138
67	2920	0	138
67	3008	0	138
67	3140	0	138
67	3200	0	138
67	3368	0	138
67	4088	0	139
67	4504	0	141
67	4572	0	141
67	5288	0	144
67	5328	0	144
67	5592	0	144
67	5880	0	144
67	5960	0	144
68	154	0	69
68	209	0	79
68	275	0	89
68	307	0	92
68	347	0	94
68	637	0	116
68	681	0	116
68	735	0	116
68	893	0	122
68	929	0	122
68	971	0	122
68	1104	0	124
68	1136	0	127
68	1234	0	128
68	1400	0	129
68	1938	0	132
68	2024	0	132
68	2048	0	132
68	2862	0	138
68	2948	0	138
68	3060	0	138
68	3068	0	138
68	3152	0	138
68	5220	0	144
68	6084	0	144
68	6300	0	144
68	6336	0	144
68	6808	0	144
68	7216	0	144
69	159	0	70
69	176	0	76
69	1076	0	124
69	1182	0	127
69	1510	0	130
69	1760	0	132
69	1950	0	132
69	2548	0	138
69	3444	0	138
69	4024	0	139
69	5308	0	144
69	5316	0	144
69	5444	0	144
69	5564	0	144
69	5636	0	144
69	6512	0	144
69	6832	0	144
70	161	0	71
70	168	0	75
70	413	0	104
70	2656	0	138
70	5312	0	144
70	5412	0	144
70	5784	0	144
70	5824	0	144
71	162	0	72
71	1186	0	127
71	1748	0	132
71	1948	0	132
71	4028	0	139
71	5832	0	144
71	6096	0	144
72	163	0	73
72	414	0	104
72	1170	0	127
72	1246	0	128
72	1504	0	130
72	1508	0	130
72	1606	0	132
72	1614	0	132
72	2328	0	132
72	5808	0	144
72	6092	0	144
73	165	0	74
73	599	0	116
73	891	0	122
73	1174	0	127
73	1512	0	130
73	1612	0	132
73	2050	0	132
73	2248	0	132
73	2330	0	132
73	2966	0	138
73	3016	0	138
73	3796	0	139
73	4036	0	139
73	5296	0	144
73	5656	0	144
73	5804	0	144
73	6788	0	144
74	167	0	75
74	175	0	76
74	211	0	79
74	217	0	79
74	353	0	94
74	622	0	116
74	649	0	116
74	689	0	116
74	1188	0	127
74	1628	0	132
74	1850	0	132
74	2152	0	132
74	2196	0	132
74	2250	0	132
74	2322	0	132
74	2340	0	132
74	2416	0	133
74	2666	0	138
74	2688	0	138
74	2896	0	138
74	2900	0	138
74	2952	0	138
74	2956	0	138
74	2994	0	138
74	4040	0	139
74	4076	0	139
74	4544	0	141
74	4688	0	141
74	5292	0	144
74	5396	0	144
74	5404	0	144
74	5480	0	144
74	5664	0	144
74	5708	0	144
74	5728	0	144
74	5772	0	144
74	6264	0	144
74	6524	0	144
75	174	0	76
75	344	0	94
75	417	0	104
75	527	0	116
75	640	0	116
75	658	0	116
75	680	0	116
75	906	0	122
75	976	0	122
75	1332	0	129
75	1840	0	132
75	1928	0	132
75	2146	0	132
75	2312	0	132
75	2426	0	133
75	2792	0	138
75	2924	0	138
75	2968	0	138
75	3428	0	138
75	3568	0	139
75	4164	0	139
75	4476	0	141
75	4988	0	144
75	5300	0	144
75	6124	0	144
75	6276	0	144
75	6356	0	144
75	6464	0	144
75	7040	0	144
76	177	0	77
76	214	0	79
76	232	0	79
76	291	0	92
76	476	0	112
76	498	0	114
76	516	0	116
76	520	0	116
76	547	0	116
76	575	0	116
76	582	0	116
76	635	0	116
76	648	0	116
76	736	0	116
76	792	0	116
76	808	0	116
76	830	0	116
76	931	0	122
76	1012	0	124
76	1158	0	127
76	1222	0	128
76	1232	0	128
76	1242	0	128
76	1330	0	129
76	1578	0	130
76	1582	0	130
76	1922	0	132
76	2172	0	132
76	2320	0	132
76	2410	0	133
76	2522	0	136
76	2546	0	138
76	2576	0	138
76	2864	0	138
76	2996	0	138
76	3032	0	138
76	3448	0	138
76	3524	0	138
76	4208	0	139
76	5440	0	144
76	5496	0	144
76	6352	0	144
76	6508	0	144
76	6604	0	144
76	6836	0	144
76	6984	0	144
77	182	0	78
77	184	0	78
77	207	0	79
77	218	0	79
77	442	0	104
77	483	0	113
77	486	0	113
77	611	0	116
77	671	0	116
77	750	0	116
77	779	0	116
77	837	0	116
77	859	0	116
77	935	0	122
77	1148	0	127
77	1200	0	127
77	1228	0	128
77	1316	0	129
77	1440	0	129
77	1446	0	129
77	2066	0	132
77	2240	0	132
77	2284	0	132
77	2518	0	134
77	2672	0	138
77	2954	0	138
77	3024	0	138
77	3500	0	138
77	3584	0	139
77	4180	0	139
77	4400	0	141
77	4772	0	141
77	5044	0	144
77	5224	0	144
77	5232	0	144
77	6184	0	144
77	6460	0	144
77	6596	0	144
77	7336	0	144
78	202	0	79
78	295	0	92
78	306	0	92
78	435	0	104
78	698	0	116
78	745	0	116
78	967	0	122
78	974	0	122
78	1070	0	124
78	1178	0	127
78	1912	0	132
78	2120	0	132
78	2430	0	133
78	2692	0	138
78	2756	0	138
78	3216	0	138
78	3412	0	138
78	3752	0	139
78	4200	0	139
78	5356	0	144
78	5620	0	144
78	6272	0	144
78	6544	0	144
78	6816	0	144
79	243	0	80
79	448	0	108
79	1056	0	124
79	1116	0	125
79	1276	0	129
79	1544	0	130
79	1904	0	132
79	2004	0	132
79	2390	0	133
79	2458	0	133
79	3916	0	139
79	3924	0	139
79	3996	0	139
79	4312	0	139
79	4608	0	141
79	5076	0	144
79	6380	0	144
79	6648	0	144
80	244	0	81
80	259	0	89
80	870	0	117
80	1526	0	130
80	1998	0	132
80	2382	0	133
80	2498	0	133
80	2822	0	138
80	3240	0	138
80	3652	0	139
80	4116	0	139
80	4820	0	141
80	4848	0	141
80	4872	0	143
80	5108	0	144
80	6376	0	144
80	6432	0	144
81	245	0	82
81	247	0	83
81	249	0	83
81	456	0	111
81	4812	0	141
81	4840	0	141
81	4876	0	144
81	6688	0	144
82	246	0	83
82	255	0	87
82	451	0	109
82	876	0	121
82	1900	0	132
82	1980	0	132
82	2446	0	133
82	3636	0	139
82	4264	0	139
82	4272	0	139
82	4880	0	144
82	5112	0	144
82	6656	0	144
82	6700	0	144
83	250	0	84
83	253	0	86
83	1294	0	129
83	6428	0	144
83	6880	0	144
83	7392	0	144
84	251	0	85
84	867	0	117
84	877	0	121
84	1126	0	127
84	1522	0	130
84	1896	0	132
84	2364	0	132
84	2484	0	133
84	3236	0	138
84	4252	0	139
84	6680	0	144
85	252	0	86
85	458	0	111
85	462	0	111
85	467	0	111
85	1284	0	129
85	1288	0	129
85	1898	0	132
85	2456	0	133
85	3692	0	139
85	4292	0	139
85	4620	0	141
85	6384	0	144
86	254	0	87
86	257	0	88
86	449	0	108
86	875	0	121
86	1046	0	124
86	1118	0	125
86	1290	0	129
86	1524	0	130
86	1540	0	130
86	2470	0	133
86	2500	0	133
86	3928	0	139
86	4112	0	139
86	5140	0	144
87	256	0	88
87	982	0	124
87	1128	0	127
87	1266	0	128
87	2366	0	132
87	2488	0	133
87	3644	0	139
87	3672	0	139
87	3972	0	139
87	3984	0	139
87	5080	0	144
87	5156	0	144
87	6392	0	144
88	258	0	89
88	869	0	117
88	1050	0	124
88	2388	0	133
88	2454	0	133
88	2482	0	133
88	2598	0	138
88	2608	0	138
88	3232	0	138
88	3648	0	139
88	3656	0	139
88	6728	0	144
89	277	0	90
89	690	0	116
89	945	0	122
89	1172	0	127
89	1250	0	128
89	1608	0	132
89	1750	0	132
89	2324	0	132
89	6496	0	144
90	286	0	91
90	300	0	92
90	721	0	116
90	880	0	121
90	2092	0	132
90	2110	0	132
90	2212	0	132
90	2398	0	133
90	3180	0	138
91	287	0	92
91	847	0	116
91	879	0	121
91	958	0	122
91	1882	0	132
91	2090	0	132
91	2214	0	132
91	2618	0	138
91	2764	0	138
91	2834	0	138
91	3184	0	138
91	4664	0	141
91	6136	0	144
91	6848	0	144
91	6864	0	144
91	7152	0	144
92	329	0	93
92	590	0	116
92	620	0	116
92	704	0	116
92	711	0	116
92	835	0	116
92	881	0	121
92	991	0	124
92	1002	0	124
92	1028	0	124
92	1490	0	129
92	2186	0	132
92	2272	0	132
92	2294	0	132
92	2768	0	138
92	2832	0	138
92	2882	0	138
92	3176	0	138
92	3768	0	139
92	4392	0	141
92	5212	0	144
92	5464	0	144
92	5936	0	144
92	6572	0	144
93	338	0	94
93	619	0	116
93	712	0	116
93	1534	0	130
93	1550	0	130
93	1884	0	132
93	2492	0	133
93	2616	0	138
93	4668	0	141
94	361	0	95
95	363	0	96
95	377	0	103
95	390	0	103
95	1654	0	132
95	1680	0	132
95	1698	0	132
95	1714	0	132
95	1720	0	132
95	1730	0	132
95	1734	0	132
95	5692	0	144
95	5700	0	144
96	364	0	97
96	366	0	98
96	376	0	103
96	378	0	103
96	380	0	103
96	382	0	103
96	388	0	103
96	400	0	104
96	405	0	104
96	407	0	104
96	1596	0	131
96	1658	0	132
96	1672	0	132
96	1682	0	132
96	1688	0	132
96	1706	0	132
96	1712	0	132
96	1724	0	132
96	1732	0	132
96	1736	0	132
96	1742	0	132
96	5688	0	144
97	365	0	98
97	381	0	103
97	393	0	103
97	399	0	104
97	403	0	104
97	409	0	104
97	411	0	104
97	1590	0	131
97	1594	0	131
97	1662	0	132
97	1666	0	132
97	1744	0	132
97	5676	0	144
97	5684	0	144
98	367	0	99
98	369	0	100
98	372	0	101
98	383	0	103
98	385	0	103
98	1650	0	132
98	1674	0	132
98	1686	0	132
98	1716	0	132
98	1726	0	132
99	368	0	100
99	371	0	101
99	386	0	103
99	391	0	103
99	1646	0	132
99	1676	0	132
99	1684	0	132
99	1692	0	132
99	1696	0	132
99	1700	0	132
99	1704	0	132
99	1718	0	132
99	1728	0	132
99	1738	0	132
100	370	0	101
100	373	0	101
100	384	0	103
100	387	0	103
100	389	0	103
100	401	0	104
100	1648	0	132
100	1652	0	132
100	1656	0	132
100	1670	0	132
100	1678	0	132
100	1722	0	132
101	374	0	102
101	379	0	103
101	392	0	103
101	396	0	104
101	398	0	104
101	402	0	104
101	404	0	104
101	406	0	104
101	1598	0	131
101	1664	0	132
101	1668	0	132
101	1690	0	132
101	1694	0	132
101	1702	0	132
101	1708	0	132
101	1740	0	132
102	375	0	103
102	395	0	104
102	397	0	104
102	408	0	104
102	410	0	104
102	1592	0	131
102	1600	0	132
102	1660	0	132
102	1710	0	132
102	5680	0	144
103	394	0	104
103	412	0	104
103	1588	0	131
103	1602	0	132
103	1746	0	132
103	5416	0	144
103	5672	0	144
104	444	0	105
104	534	0	116
104	715	0	116
104	812	0	116
104	1044	0	124
104	1888	0	132
104	1988	0	132
104	1994	0	132
104	2000	0	132
104	2514	0	133
104	2596	0	138
104	3228	0	138
104	3248	0	138
104	3256	0	138
104	3688	0	139
104	3912	0	139
104	3920	0	139
104	3944	0	139
104	3964	0	139
104	3988	0	139
104	4124	0	139
104	4344	0	141
104	4612	0	141
104	4828	0	141
104	4856	0	142
104	4884	0	144
104	5068	0	144
104	5084	0	144
104	6152	0	144
104	6160	0	144
104	6396	0	144
104	6640	0	144
104	6652	0	144
104	6892	0	144
104	6900	0	144
105	445	0	106
105	960	0	122
105	980	0	123
105	1974	0	132
105	2384	0	133
105	2476	0	133
105	2610	0	138
105	4128	0	139
105	5036	0	144
105	5160	0	144
105	5168	0	144
105	5740	0	144
105	6148	0	144
105	6696	0	144
105	6712	0	144
105	6724	0	144
106	446	0	107
106	457	0	111
106	469	0	112
106	2462	0	133
106	2474	0	133
106	2512	0	133
106	3244	0	138
106	4348	0	141
106	4836	0	141
106	5088	0	144
106	5104	0	144
107	447	0	108
107	454	0	110
107	461	0	111
107	961	0	122
107	983	0	124
107	1048	0	124
107	1270	0	128
107	1286	0	129
107	1530	0	130
107	1812	0	132
107	1996	0	132
107	2360	0	132
107	2496	0	133
107	3640	0	139
107	3896	0	139
107	3960	0	139
107	5032	0	144
107	5124	0	144
107	6436	0	144
107	6720	0	144
107	6732	0	144
107	6740	0	144
107	6748	0	144
107	6904	0	144
108	450	0	109
108	453	0	110
108	460	0	111
108	463	0	111
108	1990	0	132
108	2002	0	132
108	2606	0	138
108	3676	0	139
108	3936	0	139
108	3956	0	139
108	3976	0	139
108	4108	0	139
108	4584	0	141
108	6692	0	144
108	6872	0	144
109	452	0	110
109	466	0	111
109	1052	0	124
109	1122	0	126
109	2378	0	133
109	2452	0	133
109	2464	0	133
109	2472	0	133
109	2600	0	138
109	2604	0	138
109	3624	0	139
109	3952	0	139
109	4284	0	139
109	4864	0	142
109	6412	0	144
109	6676	0	144
110	455	0	111
110	465	0	111
110	1054	0	124
110	1268	0	128
110	1280	0	129
110	1296	0	129
110	1892	0	132
110	1902	0	132
110	4120	0	139
110	4604	0	141
110	4616	0	141
110	4852	0	141
110	5056	0	144
110	5100	0	144
110	6684	0	144
110	6704	0	144
110	6876	0	144
110	6888	0	144
111	468	0	112
111	2372	0	132
111	2504	0	133
111	2508	0	133
111	6420	0	144
112	478	0	113
112	583	0	116
112	596	0	116
112	682	0	116
112	829	0	116
112	889	0	121
112	895	0	122
112	1244	0	128
112	1502	0	130
112	1618	0	132
112	2194	0	132
112	5408	0	144
112	5816	0	144
112	6088	0	144
112	6516	0	144
113	495	0	114
113	609	0	116
113	734	0	116
113	794	0	116
113	888	0	121
113	900	0	122
113	2860	0	138
113	3440	0	138
113	3592	0	139
113	3852	0	139
113	4480	0	141
114	506	0	115
114	841	0	116
114	1552	0	130
114	2116	0	132
114	2222	0	132
114	2396	0	133
114	2878	0	138
114	2972	0	138
114	3716	0	139
114	3772	0	139
114	6560	0	144
114	6568	0	144
115	507	0	116
115	959	0	122
115	984	0	124
115	986	0	124
115	1038	0	124
115	1042	0	124
115	1058	0	124
115	1528	0	130
115	1810	0	132
115	3664	0	139
115	4328	0	141
115	4824	0	141
115	5052	0	144
115	5148	0	144
115	6048	0	144
115	6140	0	144
115	6576	0	144
115	6716	0	144
115	6744	0	144
115	6868	0	144
116	866	0	117
116	868	0	117
116	962	0	122
116	1264	0	128
116	1302	0	129
116	1532	0	130
116	2478	0	133
116	2494	0	133
116	3904	0	139
116	3980	0	139
116	4308	0	139
116	4600	0	141
116	5152	0	144
117	871	0	118
117	1124	0	126
117	1976	0	132
117	2368	0	132
117	2380	0	133
117	3628	0	139
117	3684	0	139
117	3940	0	139
117	4280	0	139
117	4592	0	141
117	4868	0	142
117	5120	0	144
118	872	0	119
118	2376	0	133
118	4288	0	139
118	6416	0	144
118	6664	0	144
119	873	0	120
119	2602	0	138
119	3620	0	139
119	6668	0	144
120	874	0	121
121	890	0	122
121	948	0	122
121	1168	0	127
121	2338	0	132
121	5524	0	144
121	5668	0	144
121	5776	0	144
121	5796	0	144
121	5836	0	144
121	7000	0	144
122	979	0	123
122	1298	0	129
122	1542	0	130
122	1894	0	132
122	1984	0	132
122	1992	0	132
122	2358	0	132
122	2362	0	132
122	2444	0	133
122	2460	0	133
122	2486	0	133
122	2594	0	138
122	3612	0	139
122	3660	0	139
122	3668	0	139
122	4248	0	139
122	4596	0	141
122	4624	0	141
122	5116	0	144
122	5128	0	144
122	5136	0	144
122	6708	0	144
123	981	0	124
123	1986	0	132
123	2480	0	133
123	3616	0	139
123	3948	0	139
123	4324	0	141
123	4332	0	141
123	4340	0	141
123	4860	0	142
123	5164	0	144
123	6144	0	144
123	6400	0	144
123	6672	0	144
124	1120	0	126
124	1292	0	129
124	2448	0	133
124	6660	0	144
125	1272	0	128
125	1536	0	130
125	1886	0	132
125	2490	0	133
125	3900	0	139
125	4304	0	139
125	4320	0	140
125	4336	0	141
125	5064	0	144
125	6156	0	144
125	6404	0	144
125	6736	0	144
126	1274	0	129
126	1282	0	129
126	1538	0	130
126	1890	0	132
126	1982	0	132
126	2370	0	132
126	2466	0	133
126	3968	0	139
126	4260	0	139
126	4300	0	139
126	4316	0	139
126	4832	0	141
126	5060	0	144
126	5132	0	144
126	5144	0	144
126	6388	0	144
126	6408	0	144
127	1500	0	130
127	6208	0	144
127	6328	0	144
128	1586	0	131
128	2326	0	132
128	2334	0	132
128	5780	0	144
129	2374	0	133
129	2450	0	133
129	2468	0	133
129	3632	0	139
129	4256	0	139
129	4276	0	139
130	2502	0	133
130	2510	0	133
130	3932	0	139
130	4296	0	139
130	4588	0	141
131	2506	0	133
131	4268	0	139
131	6424	0	144
132	6200	0	144
132	6224	0	144
132	6308	0	144
132	6320	0	144
133	6204	0	144
133	6220	0	144
133	6228	0	144
133	6316	0	144
134	6212	0	144
135	6216	0	144
135	6232	0	144
136	6236	0	144
137	6240	0	144
138	6244	0	144
138	6312	0	144
139	6896	0	144

