file 60612 1756984392                                           
version 3
run General-24-20250904-14:13:12-15228
attr configname General
attr datetime 20250904-14:13:12
attr datetimef 20250904-141312
attr experiment General
attr inifile omnetpp.ini
attr iterationvars ""
attr iterationvarsd ""
attr iterationvarsf ""
attr measurement ""
attr network TaxiNetwork
attr processid 15228
attr repetition 24
attr replication #24
attr resultdir results
attr runnumber 24
attr seedset 24
config network TaxiNetwork
config seed-set 24
config num-rngs 1
config sim-time-limit 10s
config repeat 500
config *.numWalkers 1
config *.enableDuplication true
config *.rc 700
config **.node[0].xCor 2933
config **.node[0].yCor 2747
config **.node[1].xCor 2919
config **.node[1].yCor 2817
config **.node[2].xCor 2910
config **.node[2].yCor 2861
config **.node[3].xCor 2429
config **.node[3].yCor 2851
config **.node[4].xCor 2908
config **.node[4].yCor 2714
config **.node[5].xCor 2606
config **.node[5].yCor 2722
config **.node[6].xCor 2575
config **.node[6].yCor 2753
config **.node[7].xCor 2654
config **.node[7].yCor 2513
config **.node[8].xCor 2773
config **.node[8].yCor 2580
config **.node[9].xCor 3043
config **.node[9].yCor 2780
config **.node[10].xCor 3020
config **.node[10].yCor 2813
config **.node[11].xCor 2599
config **.node[11].yCor 2300
config **.node[12].xCor 2917
config **.node[12].yCor 2698
config **.node[13].xCor 2625
config **.node[13].yCor 2641
config **.node[14].xCor 2604
config **.node[14].yCor 2790
config **.node[15].xCor 2786
config **.node[15].yCor 3082
config **.node[16].xCor 2603
config **.node[16].yCor 2802
config **.node[17].xCor 2637
config **.node[17].yCor 2869
config **.node[18].xCor 2675
config **.node[18].yCor 2955
config **.node[19].xCor 2845
config **.node[19].yCor 2937
config **.node[20].xCor 2860
config **.node[20].yCor 2888
config **.node[21].xCor 2843
config **.node[21].yCor 4158
config **.node[22].xCor 2852
config **.node[22].yCor 4017
config **.node[23].xCor 2892
config **.node[23].yCor 4961
config **.node[24].xCor 2313
config **.node[24].yCor 3993
config **.node[25].xCor 2891
config **.node[25].yCor 4959
config **.node[26].xCor 2370
config **.node[26].yCor 4050
config **.node[27].xCor 2788
config **.node[27].yCor 3958
config **.node[28].xCor 2819
config **.node[28].yCor 4428
config **.node[29].xCor 2790
config **.node[29].yCor 3761
config **.node[30].xCor 2809
config **.node[30].yCor 2908
config **.node[31].xCor 2919
config **.node[31].yCor 3575
config **.node[32].xCor 2946
config **.node[32].yCor 3466
config **.node[33].xCor 2911
config **.node[33].yCor 3453
config **.node[34].xCor 2370
config **.node[34].yCor 3656
config **.node[35].xCor 2438
config **.node[35].yCor 3738
config **.node[36].xCor 2737
config **.node[36].yCor 3570
config **.node[37].xCor 2921
config **.node[37].yCor 3698
config **.node[38].xCor 2907
config **.node[38].yCor 5197
config **.node[39].xCor 2860
config **.node[39].yCor 3852
config **.node[40].xCor 2927
config **.node[40].yCor 3684
config **.node[41].xCor 3023
config **.node[41].yCor 5313
config **.node[42].xCor 3220
config **.node[42].yCor 5811
config **.node[43].xCor 3432
config **.node[43].yCor 5715
config **.node[44].xCor 2754
config **.node[44].yCor 2463
config **.node[45].xCor 2646
config **.node[45].yCor 2673
config **.node[46].xCor 3051
config **.node[46].yCor 2792
config **.node[47].xCor 1666
config **.node[47].yCor 3697
config **.node[48].xCor 1662
config **.node[48].yCor 3694
config **.node[49].xCor 1664
config **.node[49].yCor 3667
config **.node[50].xCor 1660
config **.node[50].yCor 3664
config **.node[51].xCor 1710
config **.node[51].yCor 3573
config **.node[52].xCor 2082
config **.node[52].yCor 2650
config **.node[53].xCor 2086
config **.node[53].yCor 2657
config **.node[54].xCor 2257
config **.node[54].yCor 3232
config **.node[55].xCor 2258
config **.node[55].yCor 3225
config **.node[56].xCor 1926
config **.node[56].yCor 2570
config **.node[57].xCor 1926
config **.node[57].yCor 2576
config **.node[58].xCor 2104
config **.node[58].yCor 1758
config **.node[59].xCor 1957
config **.node[59].yCor 1826
config **.node[60].xCor 3473
config **.node[60].yCor 1523
config **.node[61].xCor 3335
config **.node[61].yCor 1726
config **.node[62].xCor 3478
config **.node[62].yCor 1517
config **.node[63].xCor 3386
config **.node[63].yCor 2119
config **.node[64].xCor 3474
config **.node[64].yCor 1762
config **.node[65].xCor 3797
config **.node[65].yCor 2099
config **.node[66].xCor 3642
config **.node[66].yCor 2136
config **.node[67].xCor 3481
config **.node[67].yCor 2334
config **.node[68].xCor 3088
config **.node[68].yCor 1505
config **.node[69].xCor 3037
config **.node[69].yCor 1693
config **.node[70].xCor 3026
config **.node[70].yCor 1700
config **.node[71].xCor 3019
config **.node[71].yCor 669
config **.node[72].xCor 3513
config **.node[72].yCor 1358
config **.node[73].xCor 3545
config **.node[73].yCor 1230
config **.node[74].xCor 4228
config **.node[74].yCor 4220
config **.node[75].xCor 3379
config **.node[75].yCor 1207
config **.node[76].xCor 3596
config **.node[76].yCor 963
config **.node[77].xCor 3637
config **.node[77].yCor 1188
config **.node[78].xCor 3759
config **.node[78].yCor 1030
config **.node[79].xCor 2918
config **.node[79].yCor 1455
config **.node[80].xCor 2711
config **.node[80].yCor 1297
config **.node[81].xCor 439
config **.node[81].yCor 1623
config **.node[82].xCor 2857
config **.node[82].yCor 3581
config **.node[83].xCor 2858
config **.node[83].yCor 3584
config **.node[84].xCor 2999
config **.node[84].yCor 2636
config **.node[85].xCor 2905
config **.node[85].yCor 2778
config **.node[86].xCor 2653
config **.node[86].yCor 2845
config **.node[87].xCor 2864
config **.node[87].yCor 2836
config **.node[88].xCor 2426
config **.node[88].yCor 2892
config **.node[89].xCor 2964
config **.node[89].yCor 2804
config **.node[90].xCor 2586
config **.node[90].yCor 3135
config **.node[91].xCor 2864
config **.node[91].yCor 2980
config **.node[92].xCor 2527
config **.node[92].yCor 3219
config **.node[93].xCor 2863
config **.node[93].yCor 3142
config **.node[94].xCor 2485
config **.node[94].yCor 3269
config **.node[95].xCor 2653
config **.node[95].yCor 1065
config **.node[96].xCor 4062
config **.node[96].yCor 400
config **.node[97].xCor 5762
config **.node[97].yCor 3023
config **.node[98].xCor 1414
config **.node[98].yCor 3461
config **.node[99].xCor 2911
config **.node[99].yCor 1737
config **.node[100].xCor 2595
config **.node[100].yCor 2299
config **.node[101].xCor 2702
config **.node[101].yCor 3419
config **.node[102].xCor 2813
config **.node[102].yCor 3307
config **.node[103].xCor 2638
config **.node[103].yCor 2258
config **.node[104].xCor 2590
config **.node[104].yCor 3125
config **.node[105].xCor 1856
config **.node[105].yCor 2990
config **.node[106].xCor 1894
config **.node[106].yCor 2239
config **.node[107].xCor 383
config **.node[107].yCor 1251
config **.node[108].xCor 3447
config **.node[108].yCor 5489
config **.node[109].xCor 3450
config **.node[109].yCor 5697
config **.node[110].xCor 2719
config **.node[110].yCor 1920
config **.node[111].xCor 2085
config **.node[111].yCor 2389
config **.node[112].xCor 1910
config **.node[112].yCor 2548
config **.node[113].xCor 2069
config **.node[113].yCor 2050
config **.node[114].xCor 2184
config **.node[114].yCor 2209
config **.node[115].xCor 2278
config **.node[115].yCor 2390
config **.node[116].xCor 2249
config **.node[116].yCor 2299
config **.node[117].xCor 2356
config **.node[117].yCor 2303
config **.node[118].xCor 2192
config **.node[118].yCor 2475
config **.node[119].xCor 1720
config **.node[119].yCor 2911
config **.node[120].xCor 2400
config **.node[120].yCor 2887
config **.node[121].xCor 3344
config **.node[121].yCor 1890
config **.node[122].xCor 3136
config **.node[122].yCor 2418
config **.node[123].xCor 3243
config **.node[123].yCor 2525
config **.node[124].xCor 2396
config **.node[124].yCor 1267
config **.node[125].xCor 467
config **.node[125].yCor 1875
config **.node[126].xCor 3506
config **.node[126].yCor 1221
config **.node[127].xCor 1034
config **.node[127].yCor 1474
config **.node[128].xCor 2908
config **.node[128].yCor 1784
config **.node[129].xCor 2876
config **.node[129].yCor 1761
config **.node[130].xCor 2849
config **.node[130].yCor 1795
config **.node[131].xCor 3029
config **.node[131].yCor 1859
config **.node[132].xCor 2924
config **.node[132].yCor 1848
config **.node[133].xCor 3493
config **.node[133].yCor 1559
config **.node[134].xCor 2760
config **.node[134].yCor 1761
config **.node[135].xCor 1644
config **.node[135].yCor 3755
config **.node[136].xCor 1463
config **.node[136].yCor 3432
config **.node[137].xCor 2595
config **.node[137].yCor 2849
config **.node[138].xCor 2581
config **.node[138].yCor 2867
config **.node[139].xCor 2524
config **.node[139].yCor 2911
config **.node[140].xCor 2570
config **.node[140].yCor 2924
config **.node[141].xCor 2676
config **.node[141].yCor 2890
config **.node[142].xCor 2666
config **.node[142].yCor 2876
config **.node[143].xCor 3735
config **.node[143].yCor 1726
config **.node[144].xCor 1637
config **.node[144].yCor 3438

vector 0 TaxiNetwork.node[93] visitedPerTimestep ETV
vector 1 TaxiNetwork.node[3] visitedPerTimestep ETV
vector 2 TaxiNetwork.node[0] visitedPerTimestep ETV
vector 3 TaxiNetwork.node[46] visitedPerTimestep ETV
vector 4 TaxiNetwork.node[17] visitedPerTimestep ETV
vector 5 TaxiNetwork.node[18] visitedPerTimestep ETV
vector 6 TaxiNetwork.node[1] visitedPerTimestep ETV
vector 7 TaxiNetwork.node[94] visitedPerTimestep ETV
vector 8 TaxiNetwork.node[29] visitedPerTimestep ETV
vector 9 TaxiNetwork.node[26] visitedPerTimestep ETV
vector 10 TaxiNetwork.node[27] visitedPerTimestep ETV
vector 11 TaxiNetwork.node[102] visitedPerTimestep ETV
vector 12 TaxiNetwork.node[14] visitedPerTimestep ETV
vector 13 TaxiNetwork.node[91] visitedPerTimestep ETV
vector 14 TaxiNetwork.node[139] visitedPerTimestep ETV
vector 15 TaxiNetwork.node[15] visitedPerTimestep ETV
vector 16 TaxiNetwork.node[89] visitedPerTimestep ETV
vector 17 TaxiNetwork.node[9] visitedPerTimestep ETV
vector 18 TaxiNetwork.node[19] visitedPerTimestep ETV
vector 19 TaxiNetwork.node[142] visitedPerTimestep ETV
vector 20 TaxiNetwork.node[7] visitedPerTimestep ETV
vector 21 TaxiNetwork.node[53] visitedPerTimestep ETV
vector 22 TaxiNetwork.node[120] visitedPerTimestep ETV
vector 23 TaxiNetwork.node[103] visitedPerTimestep ETV
vector 24 TaxiNetwork.node[88] visitedPerTimestep ETV
vector 25 TaxiNetwork.node[55] visitedPerTimestep ETV
vector 26 TaxiNetwork.node[13] visitedPerTimestep ETV
vector 27 TaxiNetwork.node[87] visitedPerTimestep ETV
vector 28 TaxiNetwork.node[90] visitedPerTimestep ETV
vector 29 TaxiNetwork.node[6] visitedPerTimestep ETV
vector 30 TaxiNetwork.node[111] visitedPerTimestep ETV
vector 31 TaxiNetwork.node[5] visitedPerTimestep ETV
vector 32 TaxiNetwork.node[137] visitedPerTimestep ETV
vector 33 TaxiNetwork.node[115] visitedPerTimestep ETV
vector 34 TaxiNetwork.node[52] visitedPerTimestep ETV
vector 35 TaxiNetwork.node[86] visitedPerTimestep ETV
vector 36 TaxiNetwork.node[11] visitedPerTimestep ETV
vector 37 TaxiNetwork.node[118] visitedPerTimestep ETV
vector 38 TaxiNetwork.node[20] visitedPerTimestep ETV
vector 39 TaxiNetwork.node[140] visitedPerTimestep ETV
vector 40 TaxiNetwork.node[30] visitedPerTimestep ETV
vector 41 TaxiNetwork.node[2] visitedPerTimestep ETV
vector 42 TaxiNetwork.node[122] visitedPerTimestep ETV
vector 43 TaxiNetwork.node[128] visitedPerTimestep ETV
vector 44 TaxiNetwork.node[132] visitedPerTimestep ETV
vector 45 TaxiNetwork.node[100] visitedPerTimestep ETV
vector 46 TaxiNetwork.node[99] visitedPerTimestep ETV
vector 47 TaxiNetwork.node[134] visitedPerTimestep ETV
vector 48 TaxiNetwork.node[61] visitedPerTimestep ETV
vector 49 TaxiNetwork.node[73] visitedPerTimestep ETV
vector 50 TaxiNetwork.node[133] visitedPerTimestep ETV
vector 51 TaxiNetwork.node[129] visitedPerTimestep ETV
vector 52 TaxiNetwork.node[69] visitedPerTimestep ETV
vector 53 TaxiNetwork.node[64] visitedPerTimestep ETV
vector 54 TaxiNetwork.node[63] visitedPerTimestep ETV
vector 55 TaxiNetwork.node[67] visitedPerTimestep ETV
vector 56 TaxiNetwork.node[65] visitedPerTimestep ETV
vector 57 TaxiNetwork.node[121] visitedPerTimestep ETV
vector 58 TaxiNetwork.node[131] visitedPerTimestep ETV
vector 59 TaxiNetwork.node[79] visitedPerTimestep ETV
vector 60 TaxiNetwork.node[75] visitedPerTimestep ETV
vector 61 TaxiNetwork.node[77] visitedPerTimestep ETV
vector 62 TaxiNetwork.node[60] visitedPerTimestep ETV
vector 63 TaxiNetwork.node[85] visitedPerTimestep ETV
vector 64 TaxiNetwork.node[32] visitedPerTimestep ETV
vector 65 TaxiNetwork.node[37] visitedPerTimestep ETV
vector 66 TaxiNetwork.node[101] visitedPerTimestep ETV
vector 67 TaxiNetwork.node[104] visitedPerTimestep ETV
vector 68 TaxiNetwork.node[138] visitedPerTimestep ETV
vector 69 TaxiNetwork.node[56] visitedPerTimestep ETV
vector 70 TaxiNetwork.node[45] visitedPerTimestep ETV
vector 71 TaxiNetwork.node[82] visitedPerTimestep ETV
vector 72 TaxiNetwork.node[12] visitedPerTimestep ETV
vector 73 TaxiNetwork.node[44] visitedPerTimestep ETV
vector 74 TaxiNetwork.node[8] visitedPerTimestep ETV
vector 75 TaxiNetwork.node[110] visitedPerTimestep ETV
vector 76 TaxiNetwork.node[130] visitedPerTimestep ETV
vector 77 TaxiNetwork.node[66] visitedPerTimestep ETV
vector 78 TaxiNetwork.node[58] visitedPerTimestep ETV
vector 79 TaxiNetwork.node[92] visitedPerTimestep ETV
vector 80 TaxiNetwork.node[141] visitedPerTimestep ETV
vector 81 TaxiNetwork.node[117] visitedPerTimestep ETV
vector 82 TaxiNetwork.node[112] visitedPerTimestep ETV
vector 83 TaxiNetwork.node[80] visitedPerTimestep ETV
vector 84 TaxiNetwork.node[70] visitedPerTimestep ETV
vector 85 TaxiNetwork.node[72] visitedPerTimestep ETV
vector 86 TaxiNetwork.node[62] visitedPerTimestep ETV
vector 87 TaxiNetwork.node[71] visitedPerTimestep ETV
vector 88 TaxiNetwork.node[76] visitedPerTimestep ETV
vector 89 TaxiNetwork.node[95] visitedPerTimestep ETV
vector 90 TaxiNetwork.node[68] visitedPerTimestep ETV
vector 91 TaxiNetwork.node[10] visitedPerTimestep ETV
vector 92 TaxiNetwork.node[31] visitedPerTimestep ETV
vector 93 TaxiNetwork.node[16] visitedPerTimestep ETV
vector 94 TaxiNetwork.node[4] visitedPerTimestep ETV
vector 95 TaxiNetwork.node[113] visitedPerTimestep ETV
vector 96 TaxiNetwork.node[114] visitedPerTimestep ETV
vector 97 TaxiNetwork.node[57] visitedPerTimestep ETV
vector 98 TaxiNetwork.node[119] visitedPerTimestep ETV
vector 99 TaxiNetwork.node[40] visitedPerTimestep ETV
vector 100 TaxiNetwork.node[83] visitedPerTimestep ETV
vector 101 TaxiNetwork.node[21] visitedPerTimestep ETV
vector 102 TaxiNetwork.node[36] visitedPerTimestep ETV
vector 103 TaxiNetwork.node[35] visitedPerTimestep ETV
vector 104 TaxiNetwork.node[116] visitedPerTimestep ETV
vector 105 TaxiNetwork.node[105] visitedPerTimestep ETV
vector 106 TaxiNetwork.node[84] visitedPerTimestep ETV
vector 107 TaxiNetwork.node[127] visitedPerTimestep ETV
vector 108 TaxiNetwork.node[22] visitedPerTimestep ETV
vector 109 TaxiNetwork.node[54] visitedPerTimestep ETV
vector 110 TaxiNetwork.node[123] visitedPerTimestep ETV
vector 111 TaxiNetwork.node[33] visitedPerTimestep ETV
vector 112 TaxiNetwork.node[39] visitedPerTimestep ETV
vector 113 TaxiNetwork.node[143] visitedPerTimestep ETV
vector 114 TaxiNetwork.node[144] visitedPerTimestep ETV
vector 115 TaxiNetwork.node[34] visitedPerTimestep ETV
vector 116 TaxiNetwork.node[126] visitedPerTimestep ETV
vector 117 TaxiNetwork.node[106] visitedPerTimestep ETV
vector 118 TaxiNetwork.node[74] visitedPerTimestep ETV
vector 119 TaxiNetwork.node[124] visitedPerTimestep ETV
vector 120 TaxiNetwork.node[78] visitedPerTimestep ETV
vector 121 TaxiNetwork.node[28] visitedPerTimestep ETV
vector 122 TaxiNetwork.node[109] visitedPerTimestep ETV
vector 123 TaxiNetwork.node[43] visitedPerTimestep ETV
vector 124 TaxiNetwork.node[41] visitedPerTimestep ETV
vector 125 TaxiNetwork.node[42] visitedPerTimestep ETV
vector 126 TaxiNetwork.node[38] visitedPerTimestep ETV
vector 127 TaxiNetwork.node[23] visitedPerTimestep ETV
vector 128 TaxiNetwork.node[25] visitedPerTimestep ETV
vector 129 TaxiNetwork.node[108] visitedPerTimestep ETV
vector 130 TaxiNetwork.node[59] visitedPerTimestep ETV
vector 131 TaxiNetwork.node[47] visitedPerTimestep ETV
vector 132 TaxiNetwork.node[50] visitedPerTimestep ETV
vector 133 TaxiNetwork.node[51] visitedPerTimestep ETV
vector 134 TaxiNetwork.node[98] visitedPerTimestep ETV
vector 135 TaxiNetwork.node[48] visitedPerTimestep ETV
vector 136 TaxiNetwork.node[136] visitedPerTimestep ETV
vector 137 TaxiNetwork.node[24] visitedPerTimestep ETV
vector 138 TaxiNetwork.node[49] visitedPerTimestep ETV
0	16636 388 1 8912 0 0 31 1 144 3888 513460
1	17024 548 2 8864 0 0 44 2 144 5319 690749
2	17572 480 3 8224 0 0 39 3 144 4603 583551
3	18052 545 4 8776 0 0 44 4 144 5342 689852
4	18597 575 5 8576 0 0 46 5 144 5769 754341
5	19172 523 6 8792 0 0 42 6 144 5162 670302
6	19695 549 7 8256 0 0 44 7 144 5430 714980
7	20244 479 8 8160 0 0 38 8 144 4864 652862
8	20723 279 9 8744 0 0 22 9 144 2744 360110
9	21002 62 10 5228 0 0 5 10 144 561 76301
10	21064 171 11 8680 0 0 13 11 144 1446 178498
11	21235 596 12 8408 0 0 44 12 144 5452 710678
12	21831 639 13 8176 0 0 47 13 144 6091 822895
13	22470 488 14 8728 0 0 36 14 144 4498 598510
14	22958 584 15 7768 0 0 43 15 144 5365 697853
15	23542 517 16 6860 0 0 38 16 144 4733 614117
16	24059 502 17 7888 0 0 37 17 144 4679 618555
17	24561 435 18 8280 0 0 32 18 144 4106 548638
18	24996 600 19 8264 0 0 44 19 144 5551 722779
19	25596 577 20 8720 0 0 42 20 144 5477 735351
20	26173 509 21 8920 0 0 38 21 144 4619 595937
21	26682 354 22 8880 0 0 26 22 144 3382 459324
22	27036 665 23 7992 0 0 50 23 144 5909 742915
23	27701 614 24 8056 0 0 45 24 144 5834 777794
24	28315 718 25 8392 0 0 53 25 144 6632 858306
25	29033 506 26 8520 0 0 37 26 144 4793 642959
26	29539 447 28 8288 0 0 33 27 144 4157 548395
27	29986 461 29 6888 0 0 34 28 144 4252 562400
28	30447 632 30 8456 0 0 47 29 144 5745 739013
29	31079 584 35 7928 0 0 43 30 144 5427 709009
30	31663 353 36 8832 0 0 26 31 144 3270 434476
31	32016 563 37 8888 0 0 42 32 144 5091 654111
32	32579 659 38 7336 0 0 49 33 144 5941 747361
33	33238 451 39 7576 0 0 33 34 144 4253 566641
34	33689 321 41 8528 0 0 24 35 144 2888 362834
35	34010 444 44 8560 0 0 33 36 144 4078 524954
36	34454 668 50 8592 0 0 49 37 144 6322 839172
37	35122 288 51 8848 0 0 21 38 144 2789 382809
38	35410 493 54 8936 0 0 36 39 144 4654 619750
39	35903 552 58 8928 0 0 41 40 144 5046 648806
40	36455 542 60 8368 0 0 40 41 144 4990 647076
41	36997 497 61 8944 0 0 37 42 144 4548 579708
42	37494 458 62 8584 0 0 34 43 144 4243 547847
43	37952 223 63 6484 0 0 17 44 144 1918 228502
44	38175 209 64 7432 0 0 16 45 144 1757 206045
45	38384 640 65 6872 0 0 48 46 144 5789 728835
46	39024 337 66 8104 0 0 25 47 144 3134 410980
47	39361 251 67 7048 0 0 19 48 144 2228 274164
48	39612 287 68 7728 0 0 22 49 144 2486 299036
49	39899 154 69 7488 0 0 12 50 144 1252 143776
50	40053 229 70 7720 0 0 17 51 144 2089 268513
51	40282 160 71 8096 0 0 12 52 144 1409 173313
52	40442 290 72 7632 0 0 22 53 144 2553 316747
53	40732 281 73 7648 0 0 21 54 144 2576 331198
54	41013 229 74 8112 0 0 17 55 144 2114 272824
55	41242 185 79 6620 0 0 14 56 144 1669 210255
56	41427 105 80 5788 0 0 8 57 144 915 109549
57	41532 269 81 7560 0 0 20 58 144 2425 308527
58	41801 350 82 7688 0 0 26 59 144 3310 436494
59	42151 310 84 7640 0 0 23 60 144 2812 355648
60	42461 211 85 7704 0 0 16 61 144 1875 228909
61	42672 66 86 1494 0 0 5 62 121 536 60040
62	42738 340 87 7736 0 0 26 63 144 2999 363647
63	43078 458 92 8784 0 0 34 64 144 4274 553584
64	43536 361 98 8736 0 0 27 65 144 3233 402405
65	43897 163 100 5400 0 0 12 66 144 1453 181437
66	44060 529 101 8424 0 0 39 67 144 4912 634288
67	44589 578 102 8872 0 0 43 68 144 5333 683365
68	45167 577 107 8600 0 0 42 69 144 5560 751470
69	45744 135 113 4008 0 0 10 70 143 1242 160384
70	45879 536 116 8568 0 0 40 71 144 4939 629231
71	46415 315 121 8664 0 0 23 72 144 2976 393198
72	46730 556 124 8488 0 0 41 73 144 5240 683882
73	47286 582 125 8464 0 0 43 74 144 5427 701331
74	47868 639 134 8328 0 0 47 75 144 6000 781318
75	48507 367 135 7600 0 0 27 76 144 3420 445220
76	48874 280 139 6472 0 0 21 77 144 2494 306550
77	49154 147 144 7360 0 0 11 78 144 1350 171534
78	49301 95 148 7408 0 0 7 79 144 882 114824
79	49396 437 164 8752 0 0 32 80 144 4176 553900
80	49833 584 174 8536 0 0 43 81 144 5573 738825
81	50417 354 215 7056 0 0 26 82 144 3328 435632
82	50771 150 216 7112 0 0 11 83 144 1429 189961
83	50921 202 223 7696 0 0 15 84 144 1917 249965
84	51123 250 229 8080 0 0 18 85 144 2444 336184
85	51373 123 232 7496 0 0 9 86 144 1149 150335
86	51496 205 233 7656 0 0 15 87 144 1908 248118
87	51701 79 242 6976 0 0 6 88 144 715 87577
88	51780 68 243 2680 0 0 5 89 140 606 75218
89	51848 66 254 6048 0 0 5 90 144 610 76484
90	51914 232 255 8088 0 0 17 91 144 2174 282862
91	52146 366 274 7880 0 0 27 92 144 3493 461051
92	52512 218 303 7168 0 0 16 93 144 2018 259378
93	52730 705 315 8496 0 0 51 94 144 6823 922897
94	53435 520 333 8952 0 0 38 95 145 4985 663309
95	53955 190 336 8840 0 0 14 96 144 1855 250153
96	54145 219 337 7584 0 0 16 97 144 2129 287313
97	54364 148 339 5996 0 0 11 98 144 1397 180245
98	54512 273 343 7816 0 0 20 99 144 2655 356899
99	54785 190 351 8760 0 0 14 100 144 1721 214571
100	54975 309 352 8416 0 0 21 101 144 2749 364429
101	55284 176 367 8688 0 0 12 102 144 1502 190538
102	55460 411 371 7864 0 0 28 103 144 3614 472506
103	55871 220 373 8624 0 0 15 104 144 1944 254868
104	56091 296 391 8824 0 0 20 105 144 2679 362965
105	56387 193 410 7104 0 0 13 106 144 1770 243032
106	56580 491 418 6700 0 0 33 107 144 4429 598971
107	57071 43 468 2556 0 0 3 108 140 362 44260
108	57114 131 480 8656 0 0 9 109 144 1149 148605
109	57245 444 556 8616 0 0 30 110 144 4094 563214
110	57689 323 629 8120 0 0 22 111 144 2852 373450
111	58012 402 641 8768 0 0 27 112 144 3656 498016
112	58414 178 661 7176 0 0 12 113 144 1600 214948
113	58592 148 721 7712 0 0 10 114 144 1315 174421
114	58740 89 790 3268 0 0 6 115 143 829 115185
115	58829 147 863 5456 0 0 10 116 144 1295 169435
116	58976 120 1086 7000 0 0 8 117 144 1048 138284
117	59096 150 1164 8816 0 0 10 118 144 1404 197692
118	59246 135 1350 6640 0 0 9 119 144 1246 173098
119	59381 60 1436 7416 0 0 4 121 144 553 76849
120	59441 30 1468 1486 0 0 2 121 121 242 29282
121	59471 75 1578 4908 0 0 5 123 144 681 93003
122	59546 75 1824 5440 0 0 5 131 144 688 94826
123	59621 60 1826 5432 0 0 4 132 144 552 76248
124	59681 90 1830 5436 0 0 6 133 144 827 114051
125	59771 90 1832 5424 0 0 6 134 144 837 116841
126	59861 90 1834 2306 0 0 6 135 140 823 112905
127	59951 120 1836 1894 0 0 8 136 138 1098 150706
128	60071 90 1844 2308 0 0 6 137 140 828 114270
129	60161 120 1866 5420 0 0 8 138 144 1118 156292
130	60281 30 2724 3968 0 0 2 141 143 284 40330
131	60311 30 3120 3132 0 0 2 143 143 286 40898
132	60341 30 3124 3256 0 0 2 143 143 286 40898
133	60371 75 3128 7824 0 0 5 143 144 718 103106
134	60446 30 3136 4452 0 0 2 143 143 286 40898
135	60476 15 3264 3264 0 0 1 143 143 143 20449
136	60491 30 4380 6576 0 0 2 143 144 287 41185
137	60521 75 4872 8648 0 0 5 144 144 720 103680
138	60596 15 6572 6572 0 0 1 144 144 144 20736

