file 79436 1756982631                                           
version 3
run Showcase-20-20250904-13:43:40-5071
attr configname Showcase
attr datetime 20250904-13:43:40
attr datetimef 20250904-134340
attr experiment Showcase
attr inifile omnetpp.ini
attr iterationvars ""
attr iterationvarsd ""
attr iterationvarsf ""
attr measurement ""
attr network TaxiNetwork
attr processid 5071
attr repetition 20
attr replication #20
attr resultdir results
attr runnumber 20
attr seedset 20
config network TaxiNetwork
config seed-set 20
config num-rngs 1
config sim-time-limit 10s
config repeat 500
config *.numWalkers 2
config *.rc 700
config **.node[0].xCor 2933
config **.node[0].yCor 2747
config **.node[1].xCor 2919
config **.node[1].yCor 2817
config **.node[2].xCor 2910
config **.node[2].yCor 2861
config **.node[3].xCor 2429
config **.node[3].yCor 2851
config **.node[4].xCor 2908
config **.node[4].yCor 2714
config **.node[5].xCor 2606
config **.node[5].yCor 2722
config **.node[6].xCor 2575
config **.node[6].yCor 2753
config **.node[7].xCor 2654
config **.node[7].yCor 2513
config **.node[8].xCor 2773
config **.node[8].yCor 2580
config **.node[9].xCor 3043
config **.node[9].yCor 2780
config **.node[10].xCor 3020
config **.node[10].yCor 2813
config **.node[11].xCor 2599
config **.node[11].yCor 2300
config **.node[12].xCor 2917
config **.node[12].yCor 2698
config **.node[13].xCor 2625
config **.node[13].yCor 2641
config **.node[14].xCor 2604
config **.node[14].yCor 2790
config **.node[15].xCor 2786
config **.node[15].yCor 3082
config **.node[16].xCor 2603
config **.node[16].yCor 2802
config **.node[17].xCor 2637
config **.node[17].yCor 2869
config **.node[18].xCor 2675
config **.node[18].yCor 2955
config **.node[19].xCor 2845
config **.node[19].yCor 2937
config **.node[20].xCor 2860
config **.node[20].yCor 2888
config **.node[21].xCor 2843
config **.node[21].yCor 4158
config **.node[22].xCor 2852
config **.node[22].yCor 4017
config **.node[23].xCor 2892
config **.node[23].yCor 4961
config **.node[24].xCor 2313
config **.node[24].yCor 3993
config **.node[25].xCor 2891
config **.node[25].yCor 4959
config **.node[26].xCor 2370
config **.node[26].yCor 4050
config **.node[27].xCor 2788
config **.node[27].yCor 3958
config **.node[28].xCor 2819
config **.node[28].yCor 4428
config **.node[29].xCor 2790
config **.node[29].yCor 3761
config **.node[30].xCor 2809
config **.node[30].yCor 2908
config **.node[31].xCor 2919
config **.node[31].yCor 3575
config **.node[32].xCor 2946
config **.node[32].yCor 3466
config **.node[33].xCor 2911
config **.node[33].yCor 3453
config **.node[34].xCor 2370
config **.node[34].yCor 3656
config **.node[35].xCor 2438
config **.node[35].yCor 3738
config **.node[36].xCor 2737
config **.node[36].yCor 3570
config **.node[37].xCor 2921
config **.node[37].yCor 3698
config **.node[38].xCor 2907
config **.node[38].yCor 5197
config **.node[39].xCor 2860
config **.node[39].yCor 3852
config **.node[40].xCor 2927
config **.node[40].yCor 3684
config **.node[41].xCor 3023
config **.node[41].yCor 5313
config **.node[42].xCor 3220
config **.node[42].yCor 5811
config **.node[43].xCor 3432
config **.node[43].yCor 5715
config **.node[44].xCor 2754
config **.node[44].yCor 2463
config **.node[45].xCor 2646
config **.node[45].yCor 2673
config **.node[46].xCor 3051
config **.node[46].yCor 2792
config **.node[47].xCor 1666
config **.node[47].yCor 3697
config **.node[48].xCor 1662
config **.node[48].yCor 3694
config **.node[49].xCor 1664
config **.node[49].yCor 3667
config **.node[50].xCor 1660
config **.node[50].yCor 3664
config **.node[51].xCor 1710
config **.node[51].yCor 3573
config **.node[52].xCor 2082
config **.node[52].yCor 2650
config **.node[53].xCor 2086
config **.node[53].yCor 2657
config **.node[54].xCor 2257
config **.node[54].yCor 3232
config **.node[55].xCor 2258
config **.node[55].yCor 3225
config **.node[56].xCor 1926
config **.node[56].yCor 2570
config **.node[57].xCor 1926
config **.node[57].yCor 2576
config **.node[58].xCor 2104
config **.node[58].yCor 1758
config **.node[59].xCor 1957
config **.node[59].yCor 1826
config **.node[60].xCor 3473
config **.node[60].yCor 1523
config **.node[61].xCor 3335
config **.node[61].yCor 1726
config **.node[62].xCor 3478
config **.node[62].yCor 1517
config **.node[63].xCor 3386
config **.node[63].yCor 2119
config **.node[64].xCor 3474
config **.node[64].yCor 1762
config **.node[65].xCor 3797
config **.node[65].yCor 2099
config **.node[66].xCor 3642
config **.node[66].yCor 2136
config **.node[67].xCor 3481
config **.node[67].yCor 2334
config **.node[68].xCor 3088
config **.node[68].yCor 1505
config **.node[69].xCor 3037
config **.node[69].yCor 1693
config **.node[70].xCor 3026
config **.node[70].yCor 1700
config **.node[71].xCor 3019
config **.node[71].yCor 669
config **.node[72].xCor 3513
config **.node[72].yCor 1358
config **.node[73].xCor 3545
config **.node[73].yCor 1230
config **.node[74].xCor 4228
config **.node[74].yCor 4220
config **.node[75].xCor 3379
config **.node[75].yCor 1207
config **.node[76].xCor 3596
config **.node[76].yCor 963
config **.node[77].xCor 3637
config **.node[77].yCor 1188
config **.node[78].xCor 3759
config **.node[78].yCor 1030
config **.node[79].xCor 2918
config **.node[79].yCor 1455
config **.node[80].xCor 2711
config **.node[80].yCor 1297
config **.node[81].xCor 439
config **.node[81].yCor 1623
config **.node[82].xCor 2857
config **.node[82].yCor 3581
config **.node[83].xCor 2858
config **.node[83].yCor 3584
config **.node[84].xCor 2999
config **.node[84].yCor 2636
config **.node[85].xCor 2905
config **.node[85].yCor 2778
config **.node[86].xCor 2653
config **.node[86].yCor 2845
config **.node[87].xCor 2864
config **.node[87].yCor 2836
config **.node[88].xCor 2426
config **.node[88].yCor 2892
config **.node[89].xCor 2964
config **.node[89].yCor 2804
config **.node[90].xCor 2586
config **.node[90].yCor 3135
config **.node[91].xCor 2864
config **.node[91].yCor 2980
config **.node[92].xCor 2527
config **.node[92].yCor 3219
config **.node[93].xCor 2863
config **.node[93].yCor 3142
config **.node[94].xCor 2485
config **.node[94].yCor 3269
config **.node[95].xCor 2653
config **.node[95].yCor 1065
config **.node[96].xCor 4062
config **.node[96].yCor 400
config **.node[97].xCor 5762
config **.node[97].yCor 3023
config **.node[98].xCor 1414
config **.node[98].yCor 3461
config **.node[99].xCor 2911
config **.node[99].yCor 1737
config **.node[100].xCor 2595
config **.node[100].yCor 2299
config **.node[101].xCor 2702
config **.node[101].yCor 3419
config **.node[102].xCor 2813
config **.node[102].yCor 3307
config **.node[103].xCor 2638
config **.node[103].yCor 2258
config **.node[104].xCor 2590
config **.node[104].yCor 3125
config **.node[105].xCor 1856
config **.node[105].yCor 2990
config **.node[106].xCor 1894
config **.node[106].yCor 2239
config **.node[107].xCor 383
config **.node[107].yCor 1251
config **.node[108].xCor 3447
config **.node[108].yCor 5489
config **.node[109].xCor 3450
config **.node[109].yCor 5697
config **.node[110].xCor 2719
config **.node[110].yCor 1920
config **.node[111].xCor 2085
config **.node[111].yCor 2389
config **.node[112].xCor 1910
config **.node[112].yCor 2548
config **.node[113].xCor 2069
config **.node[113].yCor 2050
config **.node[114].xCor 2184
config **.node[114].yCor 2209
config **.node[115].xCor 2278
config **.node[115].yCor 2390
config **.node[116].xCor 2249
config **.node[116].yCor 2299
config **.node[117].xCor 2356
config **.node[117].yCor 2303
config **.node[118].xCor 2192
config **.node[118].yCor 2475
config **.node[119].xCor 1720
config **.node[119].yCor 2911
config **.node[120].xCor 2400
config **.node[120].yCor 2887
config **.node[121].xCor 3344
config **.node[121].yCor 1890
config **.node[122].xCor 3136
config **.node[122].yCor 2418
config **.node[123].xCor 3243
config **.node[123].yCor 2525
config **.node[124].xCor 2396
config **.node[124].yCor 1267
config **.node[125].xCor 467
config **.node[125].yCor 1875
config **.node[126].xCor 3506
config **.node[126].yCor 1221
config **.node[127].xCor 1034
config **.node[127].yCor 1474
config **.node[128].xCor 2908
config **.node[128].yCor 1784
config **.node[129].xCor 2876
config **.node[129].yCor 1761
config **.node[130].xCor 2849
config **.node[130].yCor 1795
config **.node[131].xCor 3029
config **.node[131].yCor 1859
config **.node[132].xCor 2924
config **.node[132].yCor 1848
config **.node[133].xCor 3493
config **.node[133].yCor 1559
config **.node[134].xCor 2760
config **.node[134].yCor 1761
config **.node[135].xCor 1644
config **.node[135].yCor 3755
config **.node[136].xCor 1463
config **.node[136].yCor 3432
config **.node[137].xCor 2595
config **.node[137].yCor 2849
config **.node[138].xCor 2581
config **.node[138].yCor 2867
config **.node[139].xCor 2524
config **.node[139].yCor 2911
config **.node[140].xCor 2570
config **.node[140].yCor 2924
config **.node[141].xCor 2676
config **.node[141].yCor 2890
config **.node[142].xCor 2666
config **.node[142].yCor 2876
config **.node[143].xCor 3735
config **.node[143].yCor 1726
config **.node[144].xCor 1637
config **.node[144].yCor 3438

vector 0 TaxiNetwork.node[84] visitedPerTimestep ETV
vector 1 TaxiNetwork.node[89] visitedPerTimestep ETV
vector 2 TaxiNetwork.node[46] visitedPerTimestep ETV
vector 3 TaxiNetwork.node[20] visitedPerTimestep ETV
vector 4 TaxiNetwork.node[32] visitedPerTimestep ETV
vector 5 TaxiNetwork.node[101] visitedPerTimestep ETV
vector 6 TaxiNetwork.node[94] visitedPerTimestep ETV
vector 7 TaxiNetwork.node[45] visitedPerTimestep ETV
vector 8 TaxiNetwork.node[19] visitedPerTimestep ETV
vector 9 TaxiNetwork.node[90] visitedPerTimestep ETV
vector 10 TaxiNetwork.node[17] visitedPerTimestep ETV
vector 11 TaxiNetwork.node[91] visitedPerTimestep ETV
vector 12 TaxiNetwork.node[88] visitedPerTimestep ETV
vector 13 TaxiNetwork.node[6] visitedPerTimestep ETV
vector 14 TaxiNetwork.node[14] visitedPerTimestep ETV
vector 15 TaxiNetwork.node[53] visitedPerTimestep ETV
vector 16 TaxiNetwork.node[18] visitedPerTimestep ETV
vector 17 TaxiNetwork.node[13] visitedPerTimestep ETV
vector 18 TaxiNetwork.node[142] visitedPerTimestep ETV
vector 19 TaxiNetwork.node[103] visitedPerTimestep ETV
vector 20 TaxiNetwork.node[10] visitedPerTimestep ETV
vector 21 TaxiNetwork.node[141] visitedPerTimestep ETV
vector 22 TaxiNetwork.node[16] visitedPerTimestep ETV
vector 23 TaxiNetwork.node[15] visitedPerTimestep ETV
vector 24 TaxiNetwork.node[7] visitedPerTimestep ETV
vector 25 TaxiNetwork.node[87] visitedPerTimestep ETV
vector 26 TaxiNetwork.node[52] visitedPerTimestep ETV
vector 27 TaxiNetwork.node[114] visitedPerTimestep ETV
vector 28 TaxiNetwork.node[59] visitedPerTimestep ETV
vector 29 TaxiNetwork.node[113] visitedPerTimestep ETV
vector 30 TaxiNetwork.node[118] visitedPerTimestep ETV
vector 31 TaxiNetwork.node[115] visitedPerTimestep ETV
vector 32 TaxiNetwork.node[31] visitedPerTimestep ETV
vector 33 TaxiNetwork.node[82] visitedPerTimestep ETV
vector 34 TaxiNetwork.node[30] visitedPerTimestep ETV
vector 35 TaxiNetwork.node[27] visitedPerTimestep ETV
vector 36 TaxiNetwork.node[83] visitedPerTimestep ETV
vector 37 TaxiNetwork.node[54] visitedPerTimestep ETV
vector 38 TaxiNetwork.node[102] visitedPerTimestep ETV
vector 39 TaxiNetwork.node[85] visitedPerTimestep ETV
vector 40 TaxiNetwork.node[33] visitedPerTimestep ETV
vector 41 TaxiNetwork.node[37] visitedPerTimestep ETV
vector 42 TaxiNetwork.node[29] visitedPerTimestep ETV
vector 43 TaxiNetwork.node[55] visitedPerTimestep ETV
vector 44 TaxiNetwork.node[36] visitedPerTimestep ETV
vector 45 TaxiNetwork.node[3] visitedPerTimestep ETV
vector 46 TaxiNetwork.node[100] visitedPerTimestep ETV
vector 47 TaxiNetwork.node[140] visitedPerTimestep ETV
vector 48 TaxiNetwork.node[9] visitedPerTimestep ETV
vector 49 TaxiNetwork.node[2] visitedPerTimestep ETV
vector 50 TaxiNetwork.node[1] visitedPerTimestep ETV
vector 51 TaxiNetwork.node[11] visitedPerTimestep ETV
vector 52 TaxiNetwork.node[0] visitedPerTimestep ETV
vector 53 TaxiNetwork.node[4] visitedPerTimestep ETV
vector 54 TaxiNetwork.node[93] visitedPerTimestep ETV
vector 55 TaxiNetwork.node[12] visitedPerTimestep ETV
vector 56 TaxiNetwork.node[122] visitedPerTimestep ETV
vector 57 TaxiNetwork.node[129] visitedPerTimestep ETV
vector 58 TaxiNetwork.node[121] visitedPerTimestep ETV
vector 59 TaxiNetwork.node[64] visitedPerTimestep ETV
vector 60 TaxiNetwork.node[75] visitedPerTimestep ETV
vector 61 TaxiNetwork.node[62] visitedPerTimestep ETV
vector 62 TaxiNetwork.node[60] visitedPerTimestep ETV
vector 63 TaxiNetwork.node[131] visitedPerTimestep ETV
vector 64 TaxiNetwork.node[110] visitedPerTimestep ETV
vector 65 TaxiNetwork.node[80] visitedPerTimestep ETV
vector 66 TaxiNetwork.node[134] visitedPerTimestep ETV
vector 67 TaxiNetwork.node[58] visitedPerTimestep ETV
vector 68 TaxiNetwork.node[117] visitedPerTimestep ETV
vector 69 TaxiNetwork.node[5] visitedPerTimestep ETV
vector 70 TaxiNetwork.node[92] visitedPerTimestep ETV
vector 71 TaxiNetwork.node[139] visitedPerTimestep ETV
vector 72 TaxiNetwork.node[137] visitedPerTimestep ETV
vector 73 TaxiNetwork.node[44] visitedPerTimestep ETV
vector 74 TaxiNetwork.node[128] visitedPerTimestep ETV
vector 75 TaxiNetwork.node[116] visitedPerTimestep ETV
vector 76 TaxiNetwork.node[111] visitedPerTimestep ETV
vector 77 TaxiNetwork.node[119] visitedPerTimestep ETV
vector 78 TaxiNetwork.node[8] visitedPerTimestep ETV
vector 79 TaxiNetwork.node[74] visitedPerTimestep ETV
vector 80 TaxiNetwork.node[40] visitedPerTimestep ETV
vector 81 TaxiNetwork.node[69] visitedPerTimestep ETV
vector 82 TaxiNetwork.node[70] visitedPerTimestep ETV
vector 83 TaxiNetwork.node[72] visitedPerTimestep ETV
vector 84 TaxiNetwork.node[78] visitedPerTimestep ETV
vector 85 TaxiNetwork.node[96] visitedPerTimestep ETV
vector 86 TaxiNetwork.node[77] visitedPerTimestep ETV
vector 87 TaxiNetwork.node[132] visitedPerTimestep ETV
vector 88 TaxiNetwork.node[95] visitedPerTimestep ETV
vector 89 TaxiNetwork.node[71] visitedPerTimestep ETV
vector 90 TaxiNetwork.node[123] visitedPerTimestep ETV
vector 91 TaxiNetwork.node[26] visitedPerTimestep ETV
vector 92 TaxiNetwork.node[112] visitedPerTimestep ETV
vector 93 TaxiNetwork.node[56] visitedPerTimestep ETV
vector 94 TaxiNetwork.node[120] visitedPerTimestep ETV
vector 95 TaxiNetwork.node[63] visitedPerTimestep ETV
vector 96 TaxiNetwork.node[79] visitedPerTimestep ETV
vector 97 TaxiNetwork.node[61] visitedPerTimestep ETV
vector 98 TaxiNetwork.node[67] visitedPerTimestep ETV
vector 99 TaxiNetwork.node[130] visitedPerTimestep ETV
vector 100 TaxiNetwork.node[124] visitedPerTimestep ETV
vector 101 TaxiNetwork.node[66] visitedPerTimestep ETV
vector 102 TaxiNetwork.node[133] visitedPerTimestep ETV
vector 103 TaxiNetwork.node[68] visitedPerTimestep ETV
vector 104 TaxiNetwork.node[126] visitedPerTimestep ETV
vector 105 TaxiNetwork.node[104] visitedPerTimestep ETV
vector 106 TaxiNetwork.node[138] visitedPerTimestep ETV
vector 107 TaxiNetwork.node[86] visitedPerTimestep ETV
vector 108 TaxiNetwork.node[24] visitedPerTimestep ETV
vector 109 TaxiNetwork.node[34] visitedPerTimestep ETV
vector 110 TaxiNetwork.node[143] visitedPerTimestep ETV
vector 111 TaxiNetwork.node[99] visitedPerTimestep ETV
vector 112 TaxiNetwork.node[35] visitedPerTimestep ETV
vector 113 TaxiNetwork.node[21] visitedPerTimestep ETV
vector 114 TaxiNetwork.node[22] visitedPerTimestep ETV
vector 115 TaxiNetwork.node[39] visitedPerTimestep ETV
vector 116 TaxiNetwork.node[57] visitedPerTimestep ETV
vector 117 TaxiNetwork.node[105] visitedPerTimestep ETV
vector 118 TaxiNetwork.node[73] visitedPerTimestep ETV
vector 119 TaxiNetwork.node[76] visitedPerTimestep ETV
vector 120 TaxiNetwork.node[28] visitedPerTimestep ETV
vector 121 TaxiNetwork.node[25] visitedPerTimestep ETV
vector 122 TaxiNetwork.node[38] visitedPerTimestep ETV
vector 123 TaxiNetwork.node[23] visitedPerTimestep ETV
vector 124 TaxiNetwork.node[41] visitedPerTimestep ETV
vector 125 TaxiNetwork.node[108] visitedPerTimestep ETV
vector 126 TaxiNetwork.node[109] visitedPerTimestep ETV
vector 127 TaxiNetwork.node[43] visitedPerTimestep ETV
vector 128 TaxiNetwork.node[42] visitedPerTimestep ETV
vector 129 TaxiNetwork.node[127] visitedPerTimestep ETV
vector 130 TaxiNetwork.node[65] visitedPerTimestep ETV
vector 131 TaxiNetwork.node[98] visitedPerTimestep ETV
vector 132 TaxiNetwork.node[144] visitedPerTimestep ETV
vector 133 TaxiNetwork.node[50] visitedPerTimestep ETV
vector 134 TaxiNetwork.node[136] visitedPerTimestep ETV
vector 135 TaxiNetwork.node[135] visitedPerTimestep ETV
vector 136 TaxiNetwork.node[49] visitedPerTimestep ETV
vector 137 TaxiNetwork.node[48] visitedPerTimestep ETV
vector 138 TaxiNetwork.node[47] visitedPerTimestep ETV
vector 139 TaxiNetwork.node[106] visitedPerTimestep ETV
vector 140 TaxiNetwork.node[51] visitedPerTimestep ETV
0	16716 434 2 9052 0 0 34 2 144 4629 649475
1	17150 739 4 8860 0 0 58 4 143 7816 1080200
2	17889 739 6 8854 0 0 58 5 143 7799 1079523
3	18628 753 8 9034 0 0 59 7 143 7967 1102273
4	19381 633 10 8694 0 0 49 9 143 6815 965205
5	20014 744 12 9032 0 0 58 11 143 7918 1104660
6	20758 588 14 8960 0 0 46 13 143 6174 855200
7	21346 834 16 8978 0 0 65 15 143 8787 1220435
8	22180 670 18 8782 0 0 53 16 143 6869 928811
9	22850 692 20 9050 0 0 54 16 144 7344 1017234
10	23542 692 22 9040 0 0 50 17 143 6844 955596
11	24234 913 24 9022 0 0 66 19 143 9011 1253805
12	25147 938 26 9012 0 0 68 20 143 9231 1279953
13	26085 881 28 8954 0 0 64 21 143 8542 1181084
14	26966 731 30 9014 0 0 53 22 143 7150 990128
15	27697 539 32 8792 0 0 39 24 143 5310 738438
16	28236 704 34 8994 0 0 51 26 143 6941 967529
17	28940 914 36 8976 0 0 66 27 143 9068 1270634
18	29854 790 38 9038 0 0 57 28 143 7837 1091213
19	30644 763 40 8722 0 0 55 30 143 7570 1059734
20	31407 718 42 9018 0 0 52 32 143 7089 984647
21	32125 790 50 8992 0 0 57 34 143 7864 1098386
22	32915 843 52 8912 0 0 61 34 143 8331 1154857
23	33758 816 54 8756 0 0 59 34 143 8047 1118791
24	34574 607 56 9044 0 0 44 34 143 5969 824263
25	35181 541 58 8760 0 0 39 35 143 5320 739680
26	35722 482 62 8906 0 0 35 37 143 4767 661699
27	36204 400 64 9004 0 0 29 38 143 3878 537796
28	36604 129 66 8986 0 0 10 40 143 1055 132481
29	36733 356 68 8868 0 0 26 42 143 3410 468386
30	37089 441 76 7916 0 0 32 43 142 4316 597360
31	37530 543 80 9008 0 0 39 44 143 5429 765137
32	38073 691 84 8316 0 0 50 47 142 6810 944332
33	38764 662 86 8674 0 0 48 47 143 6511 902451
34	39426 663 88 8968 0 0 48 48 143 6469 895077
35	40089 416 92 8526 0 0 30 49 142 4146 581418
36	40505 582 94 8754 0 0 42 51 143 5737 798951
37	41087 607 96 8950 0 0 44 52 143 6060 843394
38	41694 803 98 8844 0 0 58 53 143 7965 1107363
39	42497 738 100 8728 0 0 53 53 143 7389 1038313
40	43235 652 102 8618 0 0 47 54 143 6440 895512
41	43887 390 108 8550 0 0 28 56 142 3880 544806
42	44277 556 110 9030 0 0 40 57 143 5547 776697
43	44833 738 118 8746 0 0 53 58 143 7366 1031134
44	45571 681 120 8680 0 0 49 59 143 6813 954789
45	46252 955 126 9020 0 0 69 60 143 9531 1326137
46	47207 635 130 9006 0 0 46 61 143 6202 849968
47	47842 606 132 8848 0 0 44 61 143 5944 817452
48	48448 551 134 8964 0 0 40 62 143 5434 746706
49	48999 665 136 8962 0 0 48 63 143 6577 913097
50	49664 691 138 8894 0 0 50 64 143 6839 947139
51	50355 872 142 8856 0 0 63 64 143 8641 1197015
52	51227 791 144 9000 0 0 57 65 143 7852 1091242
53	52018 606 148 8970 0 0 44 66 143 5969 822529
54	52624 899 156 9054 0 0 65 67 145 8943 1241131
55	53523 584 178 8998 0 0 42 67 143 5820 812620
56	54107 715 180 8888 0 0 52 67 143 7039 964325
57	54822 274 184 8444 0 0 20 68 142 2621 352659
58	55096 401 186 8402 0 0 29 68 142 3976 550848
59	55497 274 188 8388 0 0 20 69 142 2671 362457
60	55771 288 190 7858 0 0 21 70 142 2819 383609
61	56059 235 192 8434 0 0 17 71 142 2329 323835
62	56294 220 194 7432 0 0 16 72 142 2162 297106
63	56514 221 196 8882 0 0 16 73 143 2166 297806
64	56735 438 198 8586 0 0 32 74 143 4225 566449
65	57173 217 200 8420 0 0 16 75 142 2086 276526
66	57390 346 204 8428 0 0 25 76 142 3426 474090
67	57736 221 206 8984 0 0 16 77 143 2190 303964
68	57957 748 212 9042 0 0 54 79 143 7435 1031299
69	58705 772 214 8596 0 0 56 80 143 7640 1053766
70	59477 959 238 9036 0 0 69 86 143 9617 1344547
71	60436 833 240 8930 0 0 60 86 143 8344 1164656
72	61269 708 254 8916 0 0 51 86 143 7044 979330
73	61977 801 264 8890 0 0 58 86 143 7971 1102285
74	62778 330 292 8442 0 0 24 91 142 3261 446151
75	63108 467 300 8876 0 0 34 93 143 4634 637778
76	63575 430 302 8980 0 0 31 95 143 4304 600250
77	64005 306 312 8904 0 0 22 98 143 3072 430878
78	64311 848 338 8878 0 0 61 100 143 8505 1188869
79	65159 82 352 7640 0 0 6 104 142 792 105632
80	65241 489 360 8692 0 0 35 107 143 4892 685220
81	65730 250 386 8378 0 0 18 111 142 2476 341836
82	65980 289 388 8382 0 0 21 112 142 2858 390460
83	66269 195 390 7862 0 0 14 112 142 1940 269726
84	66464 109 392 7446 0 0 8 113 142 1052 139810
85	66573 13 394 394 0 0 1 114 114 114 12996
86	66586 166 398 8396 0 0 12 115 142 1641 225615
87	66752 249 406 7342 0 0 18 116 142 2437 330963
88	67001 68 410 8424 0 0 5 118 142 665 89057
89	67069 82 412 8422 0 0 6 120 142 802 107710
90	67151 500 432 8818 0 0 36 121 143 4997 694947
91	67651 334 444 8322 0 0 24 122 142 3374 474826
92	67985 251 468 8654 0 0 18 123 143 2538 358202
93	68236 293 470 8908 0 0 21 123 143 2965 418979
94	68529 851 472 8972 0 0 61 123 143 8584 1209148
95	69380 236 476 8886 0 0 17 123 143 2372 331450
96	69616 207 480 8426 0 0 15 123 142 2054 282052
97	69823 264 496 8440 0 0 19 123 142 2663 373685
98	70087 179 498 7316 0 0 13 124 142 1801 250045
99	70266 250 560 8348 0 0 18 124 142 2514 351618
100	70516 104 578 7460 0 0 7 125 142 966 133586
101	70620 117 584 8374 0 0 8 126 142 1096 150496
102	70737 283 586 8436 0 0 19 126 142 2660 372824
103	71020 357 588 8884 0 0 24 126 143 3356 469840
104	71377 268 590 8370 0 0 18 126 142 2518 352642
105	71645 793 628 9046 0 0 53 126 143 7455 1049415
106	72438 757 634 9024 0 0 51 126 143 7113 993321
107	73195 552 698 8852 0 0 37 127 143 5186 727586
108	73747 297 746 8298 0 0 20 128 142 2791 389915
109	74044 419 762 9048 0 0 28 128 143 3938 554226
110	74463 118 814 8360 0 0 8 130 142 1112 154784
111	74581 224 832 8228 0 0 15 130 142 2067 285195
112	74805 388 874 8544 0 0 26 130 142 3669 517997
113	75193 239 964 8542 0 0 16 131 142 2261 319621
114	75432 344 966 8300 0 0 23 131 142 3238 456090
115	75776 494 968 8840 0 0 33 131 143 4676 662694
116	76270 420 1190 9010 0 0 28 132 143 3969 562707
117	76690 255 1296 8944 0 0 17 132 143 2398 338448
118	76945 165 1440 8362 0 0 11 133 142 1553 219329
119	77110 120 1742 8394 0 0 8 141 142 1134 160746
120	77230 135 1990 8320 0 0 9 142 142 1278 181476
121	77365 105 2252 4930 0 0 7 142 142 994 141148
122	77470 120 2254 4926 0 0 8 142 142 1136 161312
123	77590 90 2256 4928 0 0 6 142 142 852 120984
124	77680 105 2264 2306 0 0 7 142 142 994 141148
125	77785 60 2266 4920 0 0 4 142 142 568 80656
126	77845 90 2268 4918 0 0 6 142 142 852 120984
127	77935 45 2270 2302 0 0 3 142 142 426 60492
128	77980 75 2284 4916 0 0 5 142 142 710 100820
129	78055 45 2484 6120 0 0 3 142 142 426 60492
130	78100 75 2860 8358 0 0 5 142 142 710 100820
131	78175 135 3028 8946 0 0 9 142 143 1279 181761
132	78310 195 3060 8942 0 0 13 142 143 1847 262417
133	78505 135 3062 7672 0 0 9 142 142 1278 181476
134	78640 105 3066 8934 0 0 7 142 143 995 141433
135	78745 135 3068 8936 0 0 9 142 143 1279 181761
136	78880 105 3076 8940 0 0 7 142 143 995 141433
137	78985 60 3084 8938 0 0 4 142 143 569 80941
138	79045 120 3092 4702 0 0 8 142 142 1136 161312
139	79165 150 3328 8902 0 0 10 142 143 1422 202210
140	79315 120 3490 8948 0 0 8 142 143 1137 161597

