version 3
run Showcase-20-20250904-13:43:40-5071
attr configname Showcase
attr datetime 20250904-13:43:40
attr datetimef 20250904-134340
attr experiment Showcase
attr inifile omnetpp.ini
attr iterationvars ""
attr iterationvarsd ""
attr iterationvarsf ""
attr measurement ""
attr network TaxiNetwork
attr processid 5071
attr repetition 20
attr replication #20
attr resultdir results
attr runnumber 20
attr seedset 20
config network TaxiNetwork
config seed-set 20
config num-rngs 1
config sim-time-limit 10s
config repeat 500
config *.numWalkers 2
config *.rc 700
config **.node[0].xCor 2933
config **.node[0].yCor 2747
config **.node[1].xCor 2919
config **.node[1].yCor 2817
config **.node[2].xCor 2910
config **.node[2].yCor 2861
config **.node[3].xCor 2429
config **.node[3].yCor 2851
config **.node[4].xCor 2908
config **.node[4].yCor 2714
config **.node[5].xCor 2606
config **.node[5].yCor 2722
config **.node[6].xCor 2575
config **.node[6].yCor 2753
config **.node[7].xCor 2654
config **.node[7].yCor 2513
config **.node[8].xCor 2773
config **.node[8].yCor 2580
config **.node[9].xCor 3043
config **.node[9].yCor 2780
config **.node[10].xCor 3020
config **.node[10].yCor 2813
config **.node[11].xCor 2599
config **.node[11].yCor 2300
config **.node[12].xCor 2917
config **.node[12].yCor 2698
config **.node[13].xCor 2625
config **.node[13].yCor 2641
config **.node[14].xCor 2604
config **.node[14].yCor 2790
config **.node[15].xCor 2786
config **.node[15].yCor 3082
config **.node[16].xCor 2603
config **.node[16].yCor 2802
config **.node[17].xCor 2637
config **.node[17].yCor 2869
config **.node[18].xCor 2675
config **.node[18].yCor 2955
config **.node[19].xCor 2845
config **.node[19].yCor 2937
config **.node[20].xCor 2860
config **.node[20].yCor 2888
config **.node[21].xCor 2843
config **.node[21].yCor 4158
config **.node[22].xCor 2852
config **.node[22].yCor 4017
config **.node[23].xCor 2892
config **.node[23].yCor 4961
config **.node[24].xCor 2313
config **.node[24].yCor 3993
config **.node[25].xCor 2891
config **.node[25].yCor 4959
config **.node[26].xCor 2370
config **.node[26].yCor 4050
config **.node[27].xCor 2788
config **.node[27].yCor 3958
config **.node[28].xCor 2819
config **.node[28].yCor 4428
config **.node[29].xCor 2790
config **.node[29].yCor 3761
config **.node[30].xCor 2809
config **.node[30].yCor 2908
config **.node[31].xCor 2919
config **.node[31].yCor 3575
config **.node[32].xCor 2946
config **.node[32].yCor 3466
config **.node[33].xCor 2911
config **.node[33].yCor 3453
config **.node[34].xCor 2370
config **.node[34].yCor 3656
config **.node[35].xCor 2438
config **.node[35].yCor 3738
config **.node[36].xCor 2737
config **.node[36].yCor 3570
config **.node[37].xCor 2921
config **.node[37].yCor 3698
config **.node[38].xCor 2907
config **.node[38].yCor 5197
config **.node[39].xCor 2860
config **.node[39].yCor 3852
config **.node[40].xCor 2927
config **.node[40].yCor 3684
config **.node[41].xCor 3023
config **.node[41].yCor 5313
config **.node[42].xCor 3220
config **.node[42].yCor 5811
config **.node[43].xCor 3432
config **.node[43].yCor 5715
config **.node[44].xCor 2754
config **.node[44].yCor 2463
config **.node[45].xCor 2646
config **.node[45].yCor 2673
config **.node[46].xCor 3051
config **.node[46].yCor 2792
config **.node[47].xCor 1666
config **.node[47].yCor 3697
config **.node[48].xCor 1662
config **.node[48].yCor 3694
config **.node[49].xCor 1664
config **.node[49].yCor 3667
config **.node[50].xCor 1660
config **.node[50].yCor 3664
config **.node[51].xCor 1710
config **.node[51].yCor 3573
config **.node[52].xCor 2082
config **.node[52].yCor 2650
config **.node[53].xCor 2086
config **.node[53].yCor 2657
config **.node[54].xCor 2257
config **.node[54].yCor 3232
config **.node[55].xCor 2258
config **.node[55].yCor 3225
config **.node[56].xCor 1926
config **.node[56].yCor 2570
config **.node[57].xCor 1926
config **.node[57].yCor 2576
config **.node[58].xCor 2104
config **.node[58].yCor 1758
config **.node[59].xCor 1957
config **.node[59].yCor 1826
config **.node[60].xCor 3473
config **.node[60].yCor 1523
config **.node[61].xCor 3335
config **.node[61].yCor 1726
config **.node[62].xCor 3478
config **.node[62].yCor 1517
config **.node[63].xCor 3386
config **.node[63].yCor 2119
config **.node[64].xCor 3474
config **.node[64].yCor 1762
config **.node[65].xCor 3797
config **.node[65].yCor 2099
config **.node[66].xCor 3642
config **.node[66].yCor 2136
config **.node[67].xCor 3481
config **.node[67].yCor 2334
config **.node[68].xCor 3088
config **.node[68].yCor 1505
config **.node[69].xCor 3037
config **.node[69].yCor 1693
config **.node[70].xCor 3026
config **.node[70].yCor 1700
config **.node[71].xCor 3019
config **.node[71].yCor 669
config **.node[72].xCor 3513
config **.node[72].yCor 1358
config **.node[73].xCor 3545
config **.node[73].yCor 1230
config **.node[74].xCor 4228
config **.node[74].yCor 4220
config **.node[75].xCor 3379
config **.node[75].yCor 1207
config **.node[76].xCor 3596
config **.node[76].yCor 963
config **.node[77].xCor 3637
config **.node[77].yCor 1188
config **.node[78].xCor 3759
config **.node[78].yCor 1030
config **.node[79].xCor 2918
config **.node[79].yCor 1455
config **.node[80].xCor 2711
config **.node[80].yCor 1297
config **.node[81].xCor 439
config **.node[81].yCor 1623
config **.node[82].xCor 2857
config **.node[82].yCor 3581
config **.node[83].xCor 2858
config **.node[83].yCor 3584
config **.node[84].xCor 2999
config **.node[84].yCor 2636
config **.node[85].xCor 2905
config **.node[85].yCor 2778
config **.node[86].xCor 2653
config **.node[86].yCor 2845
config **.node[87].xCor 2864
config **.node[87].yCor 2836
config **.node[88].xCor 2426
config **.node[88].yCor 2892
config **.node[89].xCor 2964
config **.node[89].yCor 2804
config **.node[90].xCor 2586
config **.node[90].yCor 3135
config **.node[91].xCor 2864
config **.node[91].yCor 2980
config **.node[92].xCor 2527
config **.node[92].yCor 3219
config **.node[93].xCor 2863
config **.node[93].yCor 3142
config **.node[94].xCor 2485
config **.node[94].yCor 3269
config **.node[95].xCor 2653
config **.node[95].yCor 1065
config **.node[96].xCor 4062
config **.node[96].yCor 400
config **.node[97].xCor 5762
config **.node[97].yCor 3023
config **.node[98].xCor 1414
config **.node[98].yCor 3461
config **.node[99].xCor 2911
config **.node[99].yCor 1737
config **.node[100].xCor 2595
config **.node[100].yCor 2299
config **.node[101].xCor 2702
config **.node[101].yCor 3419
config **.node[102].xCor 2813
config **.node[102].yCor 3307
config **.node[103].xCor 2638
config **.node[103].yCor 2258
config **.node[104].xCor 2590
config **.node[104].yCor 3125
config **.node[105].xCor 1856
config **.node[105].yCor 2990
config **.node[106].xCor 1894
config **.node[106].yCor 2239
config **.node[107].xCor 383
config **.node[107].yCor 1251
config **.node[108].xCor 3447
config **.node[108].yCor 5489
config **.node[109].xCor 3450
config **.node[109].yCor 5697
config **.node[110].xCor 2719
config **.node[110].yCor 1920
config **.node[111].xCor 2085
config **.node[111].yCor 2389
config **.node[112].xCor 1910
config **.node[112].yCor 2548
config **.node[113].xCor 2069
config **.node[113].yCor 2050
config **.node[114].xCor 2184
config **.node[114].yCor 2209
config **.node[115].xCor 2278
config **.node[115].yCor 2390
config **.node[116].xCor 2249
config **.node[116].yCor 2299
config **.node[117].xCor 2356
config **.node[117].yCor 2303
config **.node[118].xCor 2192
config **.node[118].yCor 2475
config **.node[119].xCor 1720
config **.node[119].yCor 2911
config **.node[120].xCor 2400
config **.node[120].yCor 2887
config **.node[121].xCor 3344
config **.node[121].yCor 1890
config **.node[122].xCor 3136
config **.node[122].yCor 2418
config **.node[123].xCor 3243
config **.node[123].yCor 2525
config **.node[124].xCor 2396
config **.node[124].yCor 1267
config **.node[125].xCor 467
config **.node[125].yCor 1875
config **.node[126].xCor 3506
config **.node[126].yCor 1221
config **.node[127].xCor 1034
config **.node[127].yCor 1474
config **.node[128].xCor 2908
config **.node[128].yCor 1784
config **.node[129].xCor 2876
config **.node[129].yCor 1761
config **.node[130].xCor 2849
config **.node[130].yCor 1795
config **.node[131].xCor 3029
config **.node[131].yCor 1859
config **.node[132].xCor 2924
config **.node[132].yCor 1848
config **.node[133].xCor 3493
config **.node[133].yCor 1559
config **.node[134].xCor 2760
config **.node[134].yCor 1761
config **.node[135].xCor 1644
config **.node[135].yCor 3755
config **.node[136].xCor 1463
config **.node[136].yCor 3432
config **.node[137].xCor 2595
config **.node[137].yCor 2849
config **.node[138].xCor 2581
config **.node[138].yCor 2867
config **.node[139].xCor 2524
config **.node[139].yCor 2911
config **.node[140].xCor 2570
config **.node[140].yCor 2924
config **.node[141].xCor 2676
config **.node[141].yCor 2890
config **.node[142].xCor 2666
config **.node[142].yCor 2876
config **.node[143].xCor 3735
config **.node[143].yCor 1726
config **.node[144].xCor 1637
config **.node[144].yCor 3438

vector 0 TaxiNetwork.node[84] visitedPerTimestep ETV
vector 1 TaxiNetwork.node[89] visitedPerTimestep ETV
vector 2 TaxiNetwork.node[46] visitedPerTimestep ETV
vector 3 TaxiNetwork.node[20] visitedPerTimestep ETV
vector 4 TaxiNetwork.node[32] visitedPerTimestep ETV
vector 5 TaxiNetwork.node[101] visitedPerTimestep ETV
vector 6 TaxiNetwork.node[94] visitedPerTimestep ETV
vector 7 TaxiNetwork.node[45] visitedPerTimestep ETV
vector 8 TaxiNetwork.node[19] visitedPerTimestep ETV
vector 9 TaxiNetwork.node[90] visitedPerTimestep ETV
vector 10 TaxiNetwork.node[17] visitedPerTimestep ETV
vector 11 TaxiNetwork.node[91] visitedPerTimestep ETV
vector 12 TaxiNetwork.node[88] visitedPerTimestep ETV
vector 13 TaxiNetwork.node[6] visitedPerTimestep ETV
vector 14 TaxiNetwork.node[14] visitedPerTimestep ETV
vector 15 TaxiNetwork.node[53] visitedPerTimestep ETV
vector 16 TaxiNetwork.node[18] visitedPerTimestep ETV
vector 17 TaxiNetwork.node[13] visitedPerTimestep ETV
vector 18 TaxiNetwork.node[142] visitedPerTimestep ETV
vector 19 TaxiNetwork.node[103] visitedPerTimestep ETV
vector 20 TaxiNetwork.node[10] visitedPerTimestep ETV
vector 21 TaxiNetwork.node[141] visitedPerTimestep ETV
vector 22 TaxiNetwork.node[16] visitedPerTimestep ETV
vector 23 TaxiNetwork.node[15] visitedPerTimestep ETV
vector 24 TaxiNetwork.node[7] visitedPerTimestep ETV
vector 25 TaxiNetwork.node[87] visitedPerTimestep ETV
vector 26 TaxiNetwork.node[52] visitedPerTimestep ETV
vector 27 TaxiNetwork.node[114] visitedPerTimestep ETV
vector 28 TaxiNetwork.node[59] visitedPerTimestep ETV
vector 29 TaxiNetwork.node[113] visitedPerTimestep ETV
vector 30 TaxiNetwork.node[118] visitedPerTimestep ETV
vector 31 TaxiNetwork.node[115] visitedPerTimestep ETV
vector 32 TaxiNetwork.node[31] visitedPerTimestep ETV
vector 33 TaxiNetwork.node[82] visitedPerTimestep ETV
vector 34 TaxiNetwork.node[30] visitedPerTimestep ETV
vector 35 TaxiNetwork.node[27] visitedPerTimestep ETV
vector 36 TaxiNetwork.node[83] visitedPerTimestep ETV
vector 37 TaxiNetwork.node[54] visitedPerTimestep ETV
vector 38 TaxiNetwork.node[102] visitedPerTimestep ETV
vector 39 TaxiNetwork.node[85] visitedPerTimestep ETV
vector 40 TaxiNetwork.node[33] visitedPerTimestep ETV
vector 41 TaxiNetwork.node[37] visitedPerTimestep ETV
vector 42 TaxiNetwork.node[29] visitedPerTimestep ETV
vector 43 TaxiNetwork.node[55] visitedPerTimestep ETV
vector 44 TaxiNetwork.node[36] visitedPerTimestep ETV
vector 45 TaxiNetwork.node[3] visitedPerTimestep ETV
vector 46 TaxiNetwork.node[100] visitedPerTimestep ETV
vector 47 TaxiNetwork.node[140] visitedPerTimestep ETV
vector 48 TaxiNetwork.node[9] visitedPerTimestep ETV
vector 49 TaxiNetwork.node[2] visitedPerTimestep ETV
vector 50 TaxiNetwork.node[1] visitedPerTimestep ETV
vector 51 TaxiNetwork.node[11] visitedPerTimestep ETV
vector 52 TaxiNetwork.node[0] visitedPerTimestep ETV
vector 53 TaxiNetwork.node[4] visitedPerTimestep ETV
vector 54 TaxiNetwork.node[93] visitedPerTimestep ETV
vector 55 TaxiNetwork.node[12] visitedPerTimestep ETV
vector 56 TaxiNetwork.node[122] visitedPerTimestep ETV
vector 57 TaxiNetwork.node[129] visitedPerTimestep ETV
vector 58 TaxiNetwork.node[121] visitedPerTimestep ETV
vector 59 TaxiNetwork.node[64] visitedPerTimestep ETV
vector 60 TaxiNetwork.node[75] visitedPerTimestep ETV
vector 61 TaxiNetwork.node[62] visitedPerTimestep ETV
vector 62 TaxiNetwork.node[60] visitedPerTimestep ETV
vector 63 TaxiNetwork.node[131] visitedPerTimestep ETV
vector 64 TaxiNetwork.node[110] visitedPerTimestep ETV
vector 65 TaxiNetwork.node[80] visitedPerTimestep ETV
vector 66 TaxiNetwork.node[134] visitedPerTimestep ETV
vector 67 TaxiNetwork.node[58] visitedPerTimestep ETV
vector 68 TaxiNetwork.node[117] visitedPerTimestep ETV
vector 69 TaxiNetwork.node[5] visitedPerTimestep ETV
vector 70 TaxiNetwork.node[92] visitedPerTimestep ETV
vector 71 TaxiNetwork.node[139] visitedPerTimestep ETV
vector 72 TaxiNetwork.node[137] visitedPerTimestep ETV
vector 73 TaxiNetwork.node[44] visitedPerTimestep ETV
vector 74 TaxiNetwork.node[128] visitedPerTimestep ETV
vector 75 TaxiNetwork.node[116] visitedPerTimestep ETV
vector 76 TaxiNetwork.node[111] visitedPerTimestep ETV
vector 77 TaxiNetwork.node[119] visitedPerTimestep ETV
vector 78 TaxiNetwork.node[8] visitedPerTimestep ETV
vector 79 TaxiNetwork.node[74] visitedPerTimestep ETV
vector 80 TaxiNetwork.node[40] visitedPerTimestep ETV
vector 81 TaxiNetwork.node[69] visitedPerTimestep ETV
vector 82 TaxiNetwork.node[70] visitedPerTimestep ETV
vector 83 TaxiNetwork.node[72] visitedPerTimestep ETV
vector 84 TaxiNetwork.node[78] visitedPerTimestep ETV
vector 85 TaxiNetwork.node[96] visitedPerTimestep ETV
vector 86 TaxiNetwork.node[77] visitedPerTimestep ETV
vector 87 TaxiNetwork.node[132] visitedPerTimestep ETV
vector 88 TaxiNetwork.node[95] visitedPerTimestep ETV
vector 89 TaxiNetwork.node[71] visitedPerTimestep ETV
vector 90 TaxiNetwork.node[123] visitedPerTimestep ETV
vector 91 TaxiNetwork.node[26] visitedPerTimestep ETV
vector 92 TaxiNetwork.node[112] visitedPerTimestep ETV
vector 93 TaxiNetwork.node[56] visitedPerTimestep ETV
vector 94 TaxiNetwork.node[120] visitedPerTimestep ETV
vector 95 TaxiNetwork.node[63] visitedPerTimestep ETV
vector 96 TaxiNetwork.node[79] visitedPerTimestep ETV
vector 97 TaxiNetwork.node[61] visitedPerTimestep ETV
vector 98 TaxiNetwork.node[67] visitedPerTimestep ETV
vector 99 TaxiNetwork.node[130] visitedPerTimestep ETV
vector 100 TaxiNetwork.node[124] visitedPerTimestep ETV
vector 101 TaxiNetwork.node[66] visitedPerTimestep ETV
vector 102 TaxiNetwork.node[133] visitedPerTimestep ETV
vector 103 TaxiNetwork.node[68] visitedPerTimestep ETV
vector 104 TaxiNetwork.node[126] visitedPerTimestep ETV
vector 105 TaxiNetwork.node[104] visitedPerTimestep ETV
vector 106 TaxiNetwork.node[138] visitedPerTimestep ETV
vector 107 TaxiNetwork.node[86] visitedPerTimestep ETV
vector 108 TaxiNetwork.node[24] visitedPerTimestep ETV
vector 109 TaxiNetwork.node[34] visitedPerTimestep ETV
vector 110 TaxiNetwork.node[143] visitedPerTimestep ETV
vector 111 TaxiNetwork.node[99] visitedPerTimestep ETV
vector 112 TaxiNetwork.node[35] visitedPerTimestep ETV
vector 113 TaxiNetwork.node[21] visitedPerTimestep ETV
vector 114 TaxiNetwork.node[22] visitedPerTimestep ETV
vector 115 TaxiNetwork.node[39] visitedPerTimestep ETV
vector 116 TaxiNetwork.node[57] visitedPerTimestep ETV
vector 117 TaxiNetwork.node[105] visitedPerTimestep ETV
vector 118 TaxiNetwork.node[73] visitedPerTimestep ETV
vector 119 TaxiNetwork.node[76] visitedPerTimestep ETV
vector 120 TaxiNetwork.node[28] visitedPerTimestep ETV
vector 121 TaxiNetwork.node[25] visitedPerTimestep ETV
vector 122 TaxiNetwork.node[38] visitedPerTimestep ETV
vector 123 TaxiNetwork.node[23] visitedPerTimestep ETV
vector 124 TaxiNetwork.node[41] visitedPerTimestep ETV
vector 125 TaxiNetwork.node[108] visitedPerTimestep ETV
vector 126 TaxiNetwork.node[109] visitedPerTimestep ETV
vector 127 TaxiNetwork.node[43] visitedPerTimestep ETV
vector 128 TaxiNetwork.node[42] visitedPerTimestep ETV
vector 129 TaxiNetwork.node[127] visitedPerTimestep ETV
vector 130 TaxiNetwork.node[65] visitedPerTimestep ETV
vector 131 TaxiNetwork.node[98] visitedPerTimestep ETV
vector 132 TaxiNetwork.node[144] visitedPerTimestep ETV
vector 133 TaxiNetwork.node[50] visitedPerTimestep ETV
vector 134 TaxiNetwork.node[136] visitedPerTimestep ETV
vector 135 TaxiNetwork.node[135] visitedPerTimestep ETV
vector 136 TaxiNetwork.node[49] visitedPerTimestep ETV
vector 137 TaxiNetwork.node[48] visitedPerTimestep ETV
vector 138 TaxiNetwork.node[47] visitedPerTimestep ETV
vector 139 TaxiNetwork.node[106] visitedPerTimestep ETV
vector 140 TaxiNetwork.node[51] visitedPerTimestep ETV
0	2	0	2
0	474	0	123
0	906	0	130
0	996	0	131
0	1084	0	132
0	1630	0	133
0	1796	0	141
0	1960	0	141
0	2044	0	142
0	2828	0	142
0	2930	0	142
0	3314	0	142
0	3842	0	142
0	4256	0	142
0	4322	0	142
0	4460	0	142
0	5002	0	142
0	5926	0	142
0	6658	0	142
0	6718	0	142
0	6724	0	142
0	6746	0	142
0	6908	0	142
0	6922	0	142
0	6986	0	142
0	7026	0	142
0	7274	0	142
0	7318	0	142
0	7876	0	142
0	7960	0	142
0	8004	0	142
0	8632	0	143
0	8636	0	143
0	9052	0	144
1	4	0	4
1	230	0	83
1	272	0	86
1	334	0	100
1	378	0	109
1	430	0	121
1	452	0	122
1	682	0	127
1	728	0	128
1	1080	0	132
1	1540	0	133
1	1664	0	139
1	1862	0	141
1	2092	0	142
1	2364	0	142
1	2430	0	142
1	2566	0	142
1	2770	0	142
1	2964	0	142
1	3134	0	142
1	3960	0	142
1	3966	0	142
1	3998	0	142
1	4088	0	142
1	4272	0	142
1	4404	0	142
1	4464	0	142
1	4552	0	142
1	4784	0	142
1	4886	0	142
1	5048	0	142
1	5250	0	142
1	5330	0	142
1	5364	0	142
1	5732	0	142
1	5928	0	142
1	6094	0	142
1	6126	0	142
1	6180	0	142
1	6212	0	142
1	6298	0	142
1	6318	0	142
1	6346	0	142
1	6940	0	142
1	6998	0	142
1	7024	0	142
1	7192	0	142
1	7502	0	142
1	7530	0	142
1	7638	0	142
1	7908	0	142
1	7932	0	142
1	7938	0	142
1	8074	0	142
1	8124	0	142
1	8516	0	142
1	8522	0	142
1	8860	0	143
2	6	0	5
2	128	0	61
2	164	0	67
2	322	0	98
2	596	0	126
2	636	0	126
2	850	0	130
2	928	0	130
2	1166	0	132
2	1308	0	133
2	1414	0	133
2	1582	0	133
2	1604	0	133
2	1776	0	141
2	2150	0	142
2	2216	0	142
2	2554	0	142
2	2884	0	142
2	2956	0	142
2	2986	0	142
2	3046	0	142
2	3136	0	142
2	3148	0	142
2	3304	0	142
2	3354	0	142
2	3502	0	142
2	3596	0	142
2	3694	0	142
2	3708	0	142
2	3748	0	142
2	3776	0	142
2	4458	0	142
2	4606	0	142
2	4834	0	142
2	4940	0	142
2	5160	0	142
2	5342	0	142
2	5414	0	142
2	5546	0	142
2	5756	0	142
2	6058	0	142
2	6080	0	142
2	6262	0	142
2	6274	0	142
2	6284	0	142
2	6306	0	142
2	6468	0	142
2	6872	0	142
2	7554	0	142
2	7574	0	142
2	7784	0	142
2	7904	0	142
2	8070	0	142
2	8244	0	142
2	8272	0	142
2	8768	0	143
2	8834	0	143
2	8854	0	143
3	8	0	7
3	166	0	67
3	336	0	100
3	356	0	106
3	366	0	108
3	506	0	124
3	546	0	124
3	740	0	128
3	838	0	130
3	1136	0	132
3	1316	0	133
3	1628	0	133
3	1770	0	141
3	1774	0	141
3	2344	0	142
3	2396	0	142
3	2524	0	142
3	2684	0	142
3	2842	0	142
3	2924	0	142
3	3230	0	142
3	3610	0	142
3	3918	0	142
3	3940	0	142
3	4092	0	142
3	4370	0	142
3	4414	0	142
3	4774	0	142
3	4842	0	142
3	4976	0	142
3	5264	0	142
3	5350	0	142
3	5548	0	142
3	5568	0	142
3	5768	0	142
3	5874	0	142
3	5924	0	142
3	6056	0	142
3	6196	0	142
3	6270	0	142
3	6330	0	142
3	6564	0	142
3	6710	0	142
3	6842	0	142
3	6854	0	142
3	6890	0	142
3	7080	0	142
3	7188	0	142
3	7270	0	142
3	7518	0	142
3	7622	0	142
3	7740	0	142
3	7892	0	142
3	8052	0	142
3	8060	0	142
3	8560	0	142
3	8614	0	143
3	8682	0	143
3	9034	0	143
4	10	0	9
4	1602	0	133
4	1662	0	139
4	2174	0	142
4	2190	0	142
4	2512	0	142
4	2820	0	142
4	2912	0	142
4	3006	0	142
4	3180	0	142
4	3236	0	142
4	3250	0	142
4	3534	0	142
4	3568	0	142
4	3734	0	142
4	3812	0	142
4	3866	0	142
4	4020	0	142
4	4048	0	142
4	4274	0	142
4	4302	0	142
4	4340	0	142
4	4528	0	142
4	4550	0	142
4	4656	0	142
4	5248	0	142
4	5352	0	142
4	5526	0	142
4	5558	0	142
4	5826	0	142
4	6074	0	142
4	6282	0	142
4	6324	0	142
4	6586	0	142
4	6852	0	142
4	6878	0	142
4	6888	0	142
4	7078	0	142
4	7990	0	142
4	8112	0	142
4	8182	0	142
4	8246	0	142
4	8270	0	142
4	8288	0	142
4	8292	0	142
4	8302	0	142
4	8312	0	142
4	8610	0	143
4	8694	0	143
5	12	0	11
5	124	0	59
5	508	0	124
5	538	0	124
5	872	0	130
5	890	0	130
5	944	0	130
5	1384	0	133
5	1408	0	133
5	1498	0	133
5	1560	0	133
5	1878	0	141
5	2054	0	142
5	2144	0	142
5	2192	0	142
5	2338	0	142
5	2606	0	142
5	2612	0	142
5	2760	0	142
5	2788	0	142
5	3260	0	142
5	3398	0	142
5	3434	0	142
5	4000	0	142
5	4016	0	142
5	4026	0	142
5	4194	0	142
5	4268	0	142
5	4276	0	142
5	4284	0	142
5	4314	0	142
5	4364	0	142
5	4962	0	142
5	5192	0	142
5	5714	0	142
5	5730	0	142
5	5808	0	142
5	6156	0	142
5	6244	0	142
5	6582	0	142
5	6770	0	142
5	6904	0	142
5	6996	0	142
5	7048	0	142
5	7178	0	142
5	7616	0	142
5	7828	0	142
5	7940	0	142
5	7968	0	142
5	7986	0	142
5	8000	0	142
5	8022	0	142
5	8066	0	142
5	8742	0	143
5	8952	0	143
5	8958	0	143
5	9026	0	143
5	9032	0	143
6	14	0	13
6	114	0	57
6	220	0	81
6	370	0	108
6	754	0	128
6	766	0	128
6	1390	0	133
6	1572	0	133
6	1654	0	137
6	1818	0	141
6	1880	0	141
6	2010	0	142
6	2088	0	142
6	2808	0	142
6	2846	0	142
6	2942	0	142
6	2946	0	142
6	3538	0	142
6	3770	0	142
6	3856	0	142
6	3990	0	142
6	4076	0	142
6	4288	0	142
6	4660	0	142
6	4714	0	142
6	4744	0	142
6	4810	0	142
6	4986	0	142
6	5254	0	142
6	5298	0	142
6	5374	0	142
6	6166	0	142
6	6224	0	142
6	6588	0	142
6	7520	0	142
6	7632	0	142
6	7720	0	142
6	7742	0	142
6	7956	0	142
6	8104	0	142
6	8108	0	142
6	8508	0	142
6	8672	0	143
6	8806	0	143
6	8928	0	143
6	8960	0	143
7	16	0	15
7	140	0	64
7	146	0	65
7	158	0	67
7	376	0	109
7	526	0	124
7	1010	0	132
7	1110	0	132
7	1152	0	132
7	1178	0	132
7	1790	0	141
7	2070	0	142
7	2074	0	142
7	2168	0	142
7	2590	0	142
7	2594	0	142
7	3298	0	142
7	3302	0	142
7	3348	0	142
7	3404	0	142
7	3428	0	142
7	3442	0	142
7	3458	0	142
7	3510	0	142
7	3688	0	142
7	3728	0	142
7	3892	0	142
7	3922	0	142
7	3928	0	142
7	4490	0	142
7	4716	0	142
7	4836	0	142
7	5398	0	142
7	5406	0	142
7	5430	0	142
7	5658	0	142
7	5662	0	142
7	5702	0	142
7	5798	0	142
7	5838	0	142
7	6016	0	142
7	6100	0	142
7	6138	0	142
7	6316	0	142
7	6474	0	142
7	6704	0	142
7	7138	0	142
7	7182	0	142
7	7550	0	142
7	7690	0	142
7	7706	0	142
7	7716	0	142
7	7770	0	142
7	7786	0	142
7	7928	0	142
7	8280	0	142
7	8452	0	142
7	8458	0	142
7	8488	0	142
7	8590	0	143
7	8776	0	143
7	8796	0	143
7	8810	0	143
7	8814	0	143
7	8978	0	143
8	18	0	16
8	46	0	33
8	150	0	67
8	174	0	67
8	330	0	99
8	342	0	101
8	348	0	103
8	364	0	108
8	454	0	122
8	672	0	127
8	894	0	130
8	954	0	130
8	1116	0	132
8	1146	0	132
8	1268	0	132
8	1278	0	132
8	1396	0	133
8	1464	0	133
8	1674	0	139
8	1874	0	141
8	1974	0	141
8	2072	0	142
8	2126	0	142
8	2392	0	142
8	2768	0	142
8	2816	0	142
8	3172	0	142
8	3698	0	142
8	3706	0	142
8	3952	0	142
8	4074	0	142
8	4204	0	142
8	4632	0	142
8	5286	0	142
8	5452	0	142
8	5664	0	142
8	5758	0	142
8	5880	0	142
8	5892	0	142
8	5972	0	142
8	6158	0	142
8	6348	0	142
8	6412	0	142
8	6502	0	142
8	6828	0	142
8	7542	0	142
8	8578	0	143
8	8608	0	143
8	8630	0	143
8	8638	0	143
8	8686	0	143
8	8702	0	143
8	8782	0	143
9	20	0	16
9	324	0	98
9	372	0	108
9	616	0	126
9	680	0	127
9	712	0	128
9	982	0	131
9	1006	0	132
9	1112	0	132
9	1124	0	132
9	1344	0	133
9	1378	0	133
9	1468	0	133
9	1542	0	133
9	2200	0	142
9	2526	0	142
9	2714	0	142
9	3016	0	142
9	3210	0	142
9	3218	0	142
9	3262	0	142
9	4126	0	142
9	4504	0	142
9	4750	0	142
9	4852	0	142
9	4992	0	142
9	5324	0	142
9	5412	0	142
9	5472	0	142
9	5660	0	142
9	5794	0	142
9	5932	0	142
9	6258	0	142
9	6268	0	142
9	6272	0	142
9	6278	0	142
9	6494	0	142
9	6606	0	142
9	6750	0	142
9	6768	0	142
9	6794	0	142
9	6934	0	142
9	7076	0	142
9	7494	0	142
9	7522	0	142
9	7692	0	142
9	8028	0	142
9	8184	0	142
9	8196	0	142
9	8210	0	142
9	8328	0	142
9	8456	0	142
9	8554	0	142
9	9050	0	144
10	22	0	17
10	226	0	81
10	730	0	128
10	848	0	130
10	852	0	130
10	1176	0	132
10	1496	0	133
10	1548	0	133
10	1682	0	140
10	1848	0	141
10	1866	0	141
10	1956	0	141
10	2036	0	142
10	2352	0	142
10	2608	0	142
10	3814	0	142
10	4054	0	142
10	4060	0	142
10	4080	0	142
10	4224	0	142
10	4244	0	142
10	4336	0	142
10	4408	0	142
10	4554	0	142
10	4650	0	142
10	4802	0	142
10	4888	0	142
10	4952	0	142
10	5370	0	142
10	5426	0	142
10	5458	0	142
10	5482	0	142
10	5656	0	142
10	6024	0	142
10	6200	0	142
10	6208	0	142
10	6292	0	142
10	6540	0	142
10	6630	0	142
10	6726	0	142
10	6832	0	142
10	7018	0	142
10	7286	0	142
10	7528	0	142
10	7958	0	142
10	8136	0	142
10	8340	0	142
10	8460	0	142
10	8496	0	142
10	9040	0	143
11	24	0	19
11	154	0	67
11	232	0	84
11	540	0	124
11	630	0	126
11	648	0	126
11	990	0	131
11	1126	0	132
11	1310	0	133
11	1522	0	133
11	1574	0	133
11	1608	0	133
11	1820	0	141
11	1832	0	141
11	2114	0	142
11	2378	0	142
11	2386	0	142
11	2492	0	142
11	2598	0	142
11	2620	0	142
11	2830	0	142
11	2962	0	142
11	2980	0	142
11	3208	0	142
11	3256	0	142
11	3540	0	142
11	3546	0	142
11	3598	0	142
11	3674	0	142
11	3732	0	142
11	4160	0	142
11	4172	0	142
11	4242	0	142
11	4508	0	142
11	4820	0	142
11	4956	0	142
11	4966	0	142
11	4970	0	142
11	5172	0	142
11	5362	0	142
11	5418	0	142
11	5454	0	142
11	5612	0	142
11	5698	0	142
11	5736	0	142
11	5790	0	142
11	5810	0	142
11	5820	0	142
11	5946	0	142
11	5950	0	142
11	6192	0	142
11	6220	0	142
11	6260	0	142
11	6548	0	142
11	6566	0	142
11	7002	0	142
11	7752	0	142
11	8090	0	142
11	8186	0	142
11	8514	0	142
11	8530	0	142
11	8562	0	142
11	8730	0	143
11	8896	0	143
11	8918	0	143
11	9022	0	143
12	26	0	20
12	176	0	67
12	218	0	80
12	244	0	86
12	368	0	108
12	758	0	128
12	870	0	130
12	984	0	131
12	994	0	131
12	1052	0	132
12	1558	0	133
12	1586	0	133
12	1710	0	140
12	1788	0	141
12	1794	0	141
12	1802	0	141
12	2118	0	142
12	2362	0	142
12	2450	0	142
12	2550	0	142
12	2572	0	142
12	2624	0	142
12	2694	0	142
12	2754	0	142
12	2972	0	142
12	3032	0	142
12	3166	0	142
12	3264	0	142
12	3436	0	142
12	3498	0	142
12	3600	0	142
12	3686	0	142
12	3838	0	142
12	3852	0	142
12	4030	0	142
12	4066	0	142
12	4118	0	142
12	4412	0	142
12	4502	0	142
12	4598	0	142
12	5228	0	142
12	5304	0	142
12	5402	0	142
12	5754	0	142
12	5766	0	142
12	5832	0	142
12	5986	0	142
12	6176	0	142
12	6184	0	142
12	6238	0	142
12	6508	0	142
12	6534	0	142
12	6574	0	142
12	6624	0	142
12	6680	0	142
12	6792	0	142
12	7082	0	142
12	7086	0	142
12	7796	0	142
12	7814	0	142
12	8194	0	142
12	8284	0	142
12	8504	0	142
12	8602	0	143
12	8708	0	143
12	8732	0	143
12	8874	0	143
12	9012	0	143
13	28	0	21
13	44	0	33
13	60	0	36
13	222	0	81
13	246	0	86
13	638	0	126
13	784	0	129
13	1098	0	132
13	1128	0	132
13	1318	0	133
13	1328	0	133
13	1494	0	133
13	1526	0	133
13	1598	0	133
13	1718	0	141
13	1816	0	141
13	1834	0	141
13	2052	0	142
13	2154	0	142
13	2418	0	142
13	2552	0	142
13	2708	0	142
13	2712	0	142
13	2720	0	142
13	2732	0	142
13	3056	0	142
13	3156	0	142
13	3414	0	142
13	3424	0	142
13	3456	0	142
13	3692	0	142
13	3704	0	142
13	3710	0	142
13	3730	0	142
13	3914	0	142
13	3980	0	142
13	3988	0	142
13	4114	0	142
13	4186	0	142
13	4212	0	142
13	4226	0	142
13	4892	0	142
13	4974	0	142
13	5062	0	142
13	5222	0	142
13	5684	0	142
13	5900	0	142
13	6222	0	142
13	6450	0	142
13	6524	0	142
13	6536	0	142
13	6546	0	142
13	6626	0	142
13	6702	0	142
13	7008	0	142
13	7598	0	142
13	7768	0	142
13	8014	0	142
13	8276	0	142
13	8564	0	142
13	8726	0	143
13	8740	0	143
13	8872	0	143
13	8954	0	143
14	30	0	22
14	152	0	67
14	170	0	67
14	320	0	98
14	930	0	130
14	988	0	131
14	1132	0	132
14	1266	0	132
14	1330	0	133
14	1536	0	133
14	1688	0	140
14	1912	0	141
14	2356	0	142
14	2376	0	142
14	2534	0	142
14	2682	0	142
14	2882	0	142
14	2970	0	142
14	3220	0	142
14	3356	0	142
14	3670	0	142
14	3702	0	142
14	4002	0	142
14	4098	0	142
14	4196	0	142
14	4334	0	142
14	4728	0	142
14	4772	0	142
14	5266	0	142
14	5522	0	142
14	5566	0	142
14	5774	0	142
14	5944	0	142
14	5956	0	142
14	5974	0	142
14	5978	0	142
14	6014	0	142
14	6050	0	142
14	6396	0	142
14	6454	0	142
14	6506	0	142
14	6528	0	142
14	6618	0	142
14	6708	0	142
14	6720	0	142
14	6834	0	142
14	6868	0	142
14	6906	0	142
14	7268	0	142
14	7890	0	142
14	7924	0	142
14	8924	0	143
14	9014	0	143
15	32	0	24
15	310	0	96
15	662	0	127
15	864	0	130
15	1192	0	132
15	1264	0	132
15	1298	0	132
15	1616	0	133
15	1808	0	141
15	2372	0	142
15	2710	0	142
15	3200	0	142
15	3278	0	142
15	3684	0	142
15	3716	0	142
15	3764	0	142
15	3788	0	142
15	3824	0	142
15	3984	0	142
15	4038	0	142
15	4208	0	142
15	4232	0	142
15	5312	0	142
15	5800	0	142
15	5916	0	142
15	6448	0	142
15	6530	0	142
15	6688	0	142
15	7058	0	142
15	7492	0	142
15	7564	0	142
15	7684	0	142
15	7710	0	142
15	7760	0	142
15	7912	0	142
15	7926	0	142
15	8648	0	143
15	8706	0	143
15	8792	0	143
16	34	0	26
16	82	0	45
16	374	0	108
16	750	0	128
16	912	0	130
16	992	0	131
16	1488	0	133
16	1606	0	133
16	1826	0	141
16	1888	0	141
16	2066	0	142
16	2166	0	142
16	2170	0	142
16	2456	0	142
16	2496	0	142
16	2540	0	142
16	2762	0	142
16	2826	0	142
16	3306	0	142
16	3352	0	142
16	3550	0	142
16	3592	0	142
16	3658	0	142
16	4040	0	142
16	4176	0	142
16	4184	0	142
16	4206	0	142
16	4542	0	142
16	4756	0	142
16	4872	0	142
16	5802	0	142
16	5910	0	142
16	5922	0	142
16	6060	0	142
16	6146	0	142
16	6334	0	142
16	6608	0	142
16	6716	0	142
16	6732	0	142
16	6894	0	142
16	7006	0	142
16	7170	0	142
16	7180	0	142
16	7320	0	142
16	7566	0	142
16	7744	0	142
16	7800	0	142
16	8012	0	142
16	8784	0	143
16	8892	0	143
16	8994	0	143
17	36	0	27
17	48	0	33
17	598	0	126
17	752	0	128
17	772	0	128
17	776	0	128
17	1154	0	132
17	1596	0	133
17	1700	0	140
17	1706	0	140
17	1864	0	141
17	1914	0	141
17	1918	0	141
17	2094	0	142
17	2348	0	142
17	2366	0	142
17	2454	0	142
17	2976	0	142
17	3140	0	142
17	3440	0	142
17	3574	0	142
17	3584	0	142
17	3606	0	142
17	3758	0	142
17	3778	0	142
17	3834	0	142
17	3850	0	142
17	4008	0	142
17	4056	0	142
17	4062	0	142
17	4416	0	142
17	4788	0	142
17	4972	0	142
17	4998	0	142
17	5008	0	142
17	5054	0	142
17	5080	0	142
17	5208	0	142
17	5316	0	142
17	5340	0	142
17	5512	0	142
17	5552	0	142
17	5576	0	142
17	5704	0	142
17	5860	0	142
17	6020	0	142
17	6276	0	142
17	6470	0	142
17	6492	0	142
17	6560	0	142
17	6714	0	142
17	6734	0	142
17	6822	0	142
17	7032	0	142
17	7108	0	142
17	7134	0	142
17	7646	0	142
17	7756	0	142
17	7886	0	142
17	7962	0	142
17	8122	0	142
17	8482	0	142
17	8772	0	143
17	8816	0	143
17	8898	0	143
17	8976	0	143
18	38	0	28
18	510	0	124
18	514	0	124
18	646	0	126
18	768	0	128
18	942	0	130
18	1078	0	132
18	1096	0	132
18	1324	0	133
18	1368	0	133
18	1400	0	133
18	1406	0	133
18	1554	0	133
18	1678	0	140
18	1766	0	141
18	2102	0	142
18	2120	0	142
18	2448	0	142
18	2750	0	142
18	2952	0	142
18	3138	0	142
18	3248	0	142
18	3402	0	142
18	3460	0	142
18	3468	0	142
18	3542	0	142
18	3632	0	142
18	3744	0	142
18	3828	0	142
18	3978	0	142
18	4338	0	142
18	4786	0	142
18	4980	0	142
18	5000	0	142
18	5428	0	142
18	5432	0	142
18	5562	0	142
18	5822	0	142
18	5948	0	142
18	6314	0	142
18	6394	0	142
18	6602	0	142
18	6664	0	142
18	6916	0	142
18	7022	0	142
18	7128	0	142
18	7172	0	142
18	7510	0	142
18	7582	0	142
18	7602	0	142
18	7682	0	142
18	7714	0	142
18	7920	0	142
18	8342	0	142
18	8700	0	143
18	8734	0	143
18	9038	0	143
19	40	0	30
19	182	0	67
19	548	0	124
19	708	0	128
19	1222	0	132
19	1460	0	133
19	1768	0	141
19	1840	0	141
19	1844	0	141
19	2530	0	142
19	2578	0	142
19	2728	0	142
19	2894	0	142
19	3130	0	142
19	3168	0	142
19	3228	0	142
19	3462	0	142
19	3576	0	142
19	3886	0	142
19	4090	0	142
19	4116	0	142
19	4374	0	142
19	4484	0	142
19	4644	0	142
19	4722	0	142
19	5186	0	142
19	5274	0	142
19	5480	0	142
19	5608	0	142
19	5628	0	142
19	5638	0	142
19	5676	0	142
19	5870	0	142
19	5912	0	142
19	6096	0	142
19	6294	0	142
19	6310	0	142
19	6352	0	142
19	6392	0	142
19	6426	0	142
19	6572	0	142
19	6598	0	142
19	6612	0	142
19	6616	0	142
19	6620	0	142
19	7130	0	142
19	7284	0	142
19	7378	0	142
19	7454	0	142
19	7486	0	142
19	7498	0	142
19	7506	0	142
19	7594	0	142
19	8346	0	142
19	8722	0	143
20	42	0	32
20	224	0	81
20	236	0	85
20	618	0	126
20	922	0	130
20	952	0	130
20	1252	0	132
20	1288	0	132
20	1584	0	133
20	1954	0	141
20	2172	0	142
20	2440	0	142
20	2562	0	142
20	2856	0	142
20	2880	0	142
20	2934	0	142
20	3232	0	142
20	3300	0	142
20	3516	0	142
20	4014	0	142
20	4516	0	142
20	4594	0	142
20	4900	0	142
20	4904	0	142
20	5056	0	142
20	5338	0	142
20	5570	0	142
20	5834	0	142
20	5902	0	142
20	6072	0	142
20	6188	0	142
20	6500	0	142
20	6512	0	142
20	6562	0	142
20	6662	0	142
20	6722	0	142
20	6766	0	142
20	6848	0	142
20	7124	0	142
20	7248	0	142
20	7532	0	142
20	7540	0	142
20	7548	0	142
20	7900	0	142
20	7934	0	142
20	7942	0	142
20	7966	0	142
20	8214	0	142
20	8494	0	142
20	8824	0	143
20	8914	0	143
20	9018	0	143
21	50	0	34
21	344	0	102
21	534	0	124
21	774	0	128
21	914	0	130
21	934	0	130
21	1068	0	132
21	1226	0	132
21	1346	0	133
21	1850	0	141
21	2100	0	142
21	2112	0	142
21	2504	0	142
21	2772	0	142
21	3146	0	142
21	3358	0	142
21	3904	0	142
21	4308	0	142
21	4628	0	142
21	4734	0	142
21	4844	0	142
21	4894	0	142
21	5082	0	142
21	5238	0	142
21	5246	0	142
21	5334	0	142
21	5520	0	142
21	5678	0	142
21	5720	0	142
21	5762	0	142
21	5812	0	142
21	5934	0	142
21	6010	0	142
21	6064	0	142
21	6210	0	142
21	6216	0	142
21	6236	0	142
21	6522	0	142
21	6858	0	142
21	6992	0	142
21	7000	0	142
21	7010	0	142
21	7146	0	142
21	7160	0	142
21	7280	0	142
21	7496	0	142
21	7568	0	142
21	7654	0	142
21	7748	0	142
21	7936	0	142
21	8190	0	142
21	8218	0	142
21	8242	0	142
21	8738	0	143
21	8780	0	143
21	8846	0	143
21	8992	0	143
22	52	0	34
22	280	0	88
22	286	0	89
22	426	0	121
22	678	0	127
22	778	0	128
22	904	0	130
22	1134	0	132
22	1174	0	132
22	1312	0	133
22	1502	0	133
22	1614	0	133
22	1668	0	139
22	1698	0	140
22	1704	0	140
22	1828	0	141
22	2060	0	142
22	2106	0	142
22	2586	0	142
22	2622	0	142
22	2738	0	142
22	2960	0	142
22	3040	0	142
22	3044	0	142
22	3400	0	142
22	3500	0	142
22	3514	0	142
22	3608	0	142
22	3722	0	142
22	3926	0	142
22	3958	0	142
22	4068	0	142
22	4082	0	142
22	4086	0	142
22	4188	0	142
22	4264	0	142
22	4324	0	142
22	5236	0	142
22	5322	0	142
22	5416	0	142
22	5680	0	142
22	5778	0	142
22	5982	0	142
22	6018	0	142
22	6132	0	142
22	6398	0	142
22	6556	0	142
22	6628	0	142
22	6690	0	142
22	6844	0	142
22	6938	0	142
22	7016	0	142
22	7020	0	142
22	7034	0	142
22	7326	0	142
22	7500	0	142
22	7586	0	142
22	7830	0	142
22	8164	0	142
22	8556	0	142
22	8912	0	143
23	54	0	34
23	116	0	57
23	256	0	86
23	438	0	121
23	840	0	130
23	960	0	130
23	1276	0	132
23	1292	0	132
23	1466	0	133
23	1632	0	133
23	1958	0	141
23	1996	0	142
23	2082	0	142
23	2230	0	142
23	2382	0	142
23	2536	0	142
23	2752	0	142
23	2806	0	142
23	2920	0	142
23	3012	0	142
23	3110	0	142
23	3162	0	142
23	3242	0	142
23	3288	0	142
23	3432	0	142
23	3450	0	142
23	3594	0	142
23	3818	0	142
23	4046	0	142
23	4512	0	142
23	4534	0	142
23	4604	0	142
23	4730	0	142
23	4838	0	142
23	4902	0	142
23	5182	0	142
23	5326	0	142
23	5460	0	142
23	5524	0	142
23	5564	0	142
23	5830	0	142
23	5882	0	142
23	5904	0	142
23	6076	0	142
23	6178	0	142
23	6194	0	142
23	6568	0	142
23	6578	0	142
23	6866	0	142
23	7626	0	142
23	7704	0	142
23	7718	0	142
23	8076	0	142
23	8082	0	142
23	8330	0	142
23	8480	0	142
23	8506	0	142
23	8620	0	143
23	8756	0	143
24	56	0	34
24	260	0	86
24	516	0	124
24	652	0	126
24	734	0	128
24	980	0	131
24	1004	0	132
24	1138	0	132
24	1164	0	132
24	1180	0	132
24	1184	0	132
24	1618	0	133
24	1916	0	141
24	2026	0	142
24	2408	0	142
24	2432	0	142
24	2546	0	142
24	2596	0	142
24	2904	0	142
24	3254	0	142
24	3296	0	142
24	3588	0	142
24	3782	0	142
24	4182	0	142
24	4320	0	142
24	4468	0	142
24	4636	0	142
24	4738	0	142
24	4840	0	142
24	5936	0	142
24	5954	0	142
24	6390	0	142
24	6610	0	142
24	6674	0	142
24	6824	0	142
24	7120	0	142
24	7132	0	142
24	7650	0	142
24	7882	0	142
24	8450	0	142
24	8720	0	143
24	8858	0	143
24	9016	0	143
24	9044	0	143
25	58	0	35
25	332	0	100
25	340	0	101
25	1088	0	132
25	1092	0	132
25	1168	0	132
25	2388	0	142
25	2446	0	142
25	2506	0	142
25	2692	0	142
25	3628	0	142
25	3678	0	142
25	3724	0	142
25	3890	0	142
25	3936	0	142
25	4260	0	142
25	4352	0	142
25	4736	0	142
25	4906	0	142
25	4946	0	142
25	5242	0	142
25	5276	0	142
25	5652	0	142
25	5724	0	142
25	5776	0	142
25	6098	0	142
25	6182	0	142
25	6404	0	142
25	6466	0	142
25	6482	0	142
25	6814	0	142
25	7810	0	142
25	7950	0	142
25	8232	0	142
25	8282	0	142
25	8308	0	142
25	8334	0	142
25	8644	0	143
25	8760	0	143
26	62	0	37
26	314	0	98
26	716	0	128
26	866	0	130
26	978	0	131
26	1224	0	132
26	1592	0	133
26	1692	0	140
26	2368	0	142
26	2426	0	142
26	2464	0	142
26	2902	0	142
26	3202	0	142
26	3338	0	142
26	3342	0	142
26	3762	0	142
26	3790	0	142
26	3826	0	142
26	3882	0	142
26	4112	0	142
26	4168	0	142
26	5404	0	142
26	6004	0	142
26	6090	0	142
26	6518	0	142
26	6604	0	142
26	6756	0	142
26	7244	0	142
26	7262	0	142
26	7584	0	142
26	7848	0	142
26	8582	0	143
26	8716	0	143
26	8866	0	143
26	8906	0	143
27	64	0	38
27	72	0	42
27	1002	0	132
27	1186	0	132
27	1262	0	132
27	1320	0	133
27	2468	0	142
27	2730	0	142
27	2744	0	142
27	3320	0	142
27	3324	0	142
27	3780	0	142
27	4234	0	142
27	4330	0	142
27	5272	0	142
27	5308	0	142
27	5514	0	142
27	5686	0	142
27	6338	0	142
27	7060	0	142
27	7226	0	142
27	7592	0	142
27	7596	0	142
27	7776	0	142
27	8040	0	142
27	8156	0	142
27	8656	0	143
27	8812	0	143
27	9004	0	143
28	66	0	40
28	70	0	42
28	74	0	42
28	210	0	78
28	5270	0	142
28	6634	0	142
28	6648	0	142
28	7164	0	142
28	8150	0	142
28	8986	0	143
29	68	0	42
29	78	0	43
29	208	0	77
29	1188	0	132
29	1516	0	133
29	1784	0	141
29	2466	0	142
29	2700	0	142
29	3408	0	142
29	4878	0	142
29	5504	0	142
29	5508	0	142
29	5620	0	142
29	5626	0	142
29	5850	0	142
29	6386	0	142
29	6424	0	142
29	6434	0	142
29	6642	0	142
29	7166	0	142
29	7490	0	142
29	8034	0	142
29	8152	0	142
29	8472	0	142
29	8660	0	143
29	8868	0	143
30	76	0	43
30	216	0	80
30	262	0	86
30	1364	0	133
30	1842	0	141
30	1852	0	141
30	2016	0	142
30	2032	0	142
30	2104	0	142
30	2722	0	142
30	2726	0	142
30	3484	0	142
30	3720	0	142
30	3956	0	142
30	5214	0	142
30	5400	0	142
30	5518	0	142
30	5674	0	142
30	5844	0	142
30	6038	0	142
30	6444	0	142
30	6596	0	142
30	6600	0	142
30	6632	0	142
30	6646	0	142
30	6650	0	142
30	6684	0	142
30	6790	0	142
30	7588	0	142
30	7774	0	142
30	7832	0	142
30	7916	0	142
31	80	0	44
31	1420	0	133
31	1686	0	140
31	1712	0	140
31	1910	0	141
31	2028	0	142
31	2458	0	142
31	2632	0	142
31	2896	0	142
31	3282	0	142
31	3346	0	142
31	3656	0	142
31	3986	0	142
31	4214	0	142
31	4218	0	142
31	4740	0	142
31	5188	0	142
31	5268	0	142
31	5478	0	142
31	5786	0	142
31	5840	0	142
31	6440	0	142
31	6452	0	142
31	6456	0	142
31	6614	0	142
31	7162	0	142
31	7230	0	142
31	7236	0	142
31	7254	0	142
31	7288	0	142
31	7558	0	142
31	7712	0	142
31	7888	0	142
31	7918	0	142
31	8470	0	142
31	8476	0	142
31	8584	0	143
31	8982	0	143
31	9008	0	143
32	84	0	47
32	112	0	57
32	358	0	106
32	542	0	124
32	742	0	128
32	962	0	130
32	1122	0	132
32	1272	0	132
32	1392	0	133
32	1970	0	141
32	1998	0	142
32	2002	0	142
32	2232	0	142
32	2244	0	142
32	2342	0	142
32	2764	0	142
32	2918	0	142
32	3004	0	142
32	3010	0	142
32	3116	0	142
32	3366	0	142
32	3382	0	142
32	3386	0	142
32	3390	0	142
32	3556	0	142
32	3560	0	142
32	3738	0	142
32	4292	0	142
32	4304	0	142
32	4346	0	142
32	4520	0	142
32	4610	0	142
32	4854	0	142
32	5290	0	142
32	5376	0	142
32	5728	0	142
32	5970	0	142
32	6144	0	142
32	6326	0	142
32	6880	0	142
32	7044	0	142
32	7608	0	142
32	7618	0	142
32	7738	0	142
32	7802	0	142
32	8170	0	142
32	8202	0	142
32	8256	0	142
32	8294	0	142
32	8316	0	142
33	86	0	47
33	90	0	48
33	350	0	103
33	354	0	105
33	882	0	130
33	970	0	131
33	1270	0	132
33	1646	0	133
33	2246	0	142
33	2618	0	142
33	2644	0	142
33	2668	0	142
33	2766	0	142
33	2790	0	142
33	2796	0	142
33	2824	0	142
33	2914	0	142
33	3372	0	142
33	3380	0	142
33	3660	0	142
33	3864	0	142
33	3974	0	142
33	4342	0	142
33	4510	0	142
33	4614	0	142
33	4818	0	142
33	5464	0	142
33	5494	0	142
33	5528	0	142
33	5708	0	142
33	5804	0	142
33	5890	0	142
33	6142	0	142
33	6160	0	142
33	6796	0	142
33	6882	0	142
33	7092	0	142
33	7104	0	142
33	7642	0	142
33	7722	0	142
33	7824	0	142
33	7978	0	142
33	7998	0	142
33	8100	0	142
33	8180	0	142
33	8326	0	142
33	8628	0	143
33	8674	0	143
34	88	0	48
34	104	0	54
34	122	0	59
34	326	0	98
34	1082	0	132
34	1372	0	133
34	1380	0	133
34	1626	0	133
34	1846	0	141
34	1868	0	141
34	1872	0	141
34	2384	0	142
34	2490	0	142
34	2542	0	142
34	2564	0	142
34	3164	0	142
34	3206	0	142
34	3726	0	142
34	3972	0	142
34	3976	0	142
34	4486	0	142
34	5278	0	142
34	5716	0	142
34	5856	0	142
34	5962	0	142
34	6488	0	142
34	6580	0	142
34	6932	0	142
34	7038	0	142
34	7106	0	142
34	7272	0	142
34	7504	0	142
34	7534	0	142
34	7606	0	142
34	7624	0	142
34	7648	0	142
34	7884	0	142
34	7896	0	142
34	8008	0	142
34	8072	0	142
34	8088	0	142
34	8168	0	142
34	8188	0	142
34	8304	0	142
34	8338	0	142
34	8484	0	142
34	8624	0	143
34	8968	0	143
35	92	0	49
35	888	0	130
35	1386	0	133
35	2134	0	142
35	2238	0	142
35	2666	0	142
35	2802	0	142
35	2834	0	142
35	2994	0	142
35	3238	0	142
35	3736	0	142
35	4018	0	142
35	4282	0	142
35	4296	0	142
35	4300	0	142
35	5390	0	142
35	5438	0	142
35	5448	0	142
35	5466	0	142
35	5488	0	142
35	5534	0	142
35	5540	0	142
35	6246	0	142
35	6776	0	142
35	6798	0	142
35	6802	0	142
35	6808	0	142
35	7974	0	142
35	8200	0	142
35	8526	0	142
36	94	0	51
36	106	0	54
36	748	0	128
36	1114	0	132
36	1118	0	132
36	1356	0	133
36	1656	0	138
36	1660	0	139
36	1904	0	141
36	2006	0	142
36	2124	0	142
36	2138	0	142
36	2340	0	142
36	2520	0	142
36	2646	0	142
36	2818	0	142
36	2910	0	142
36	3196	0	142
36	3212	0	142
36	3396	0	142
36	3530	0	142
36	3870	0	142
36	4094	0	142
36	4130	0	142
36	4344	0	142
36	5358	0	142
36	5538	0	142
36	5792	0	142
36	5894	0	142
36	6248	0	142
36	6698	0	142
36	6730	0	142
36	6898	0	142
36	7732	0	142
36	8106	0	142
36	8198	0	142
36	8260	0	142
36	8528	0	142
36	8532	0	142
36	8626	0	143
36	8688	0	143
36	8754	0	143
37	96	0	52
37	440	0	121
37	608	0	126
37	674	0	127
37	764	0	128
37	958	0	130
37	976	0	131
37	1348	0	133
37	1810	0	141
37	1886	0	141
37	1906	0	141
37	2122	0	142
37	2208	0	142
37	2908	0	142
37	3014	0	142
37	3198	0	142
37	3636	0	142
37	3808	0	142
37	4100	0	142
37	4164	0	142
37	4368	0	142
37	4410	0	142
37	4496	0	142
37	4712	0	142
37	4768	0	142
37	4826	0	142
37	5176	0	142
37	5372	0	142
37	5554	0	142
37	5574	0	142
37	5706	0	142
37	6218	0	142
37	6256	0	142
37	6544	0	142
37	6758	0	142
37	6830	0	142
37	7040	0	142
37	7084	0	142
37	7724	0	142
37	7788	0	142
37	8098	0	142
37	8580	0	143
37	8920	0	143
37	8950	0	143
38	98	0	53
38	168	0	67
38	694	0	127
38	726	0	128
38	738	0	128
38	886	0	130
38	1086	0	132
38	1336	0	133
38	1370	0	133
38	1504	0	133
38	1564	0	133
38	1644	0	133
38	2078	0	142
38	2156	0	142
38	2196	0	142
38	2626	0	142
38	2638	0	142
38	2660	0	142
38	2776	0	142
38	2832	0	142
38	2854	0	142
38	2974	0	142
38	3364	0	142
38	3624	0	142
38	3740	0	142
38	4258	0	142
38	4306	0	142
38	4592	0	142
38	4620	0	142
38	4808	0	142
38	4828	0	142
38	4868	0	142
38	4890	0	142
38	4938	0	142
38	4964	0	142
38	5074	0	142
38	5256	0	142
38	5354	0	142
38	5394	0	142
38	5654	0	142
38	6170	0	142
38	6400	0	142
38	6510	0	142
38	6764	0	142
38	7088	0	142
38	7176	0	142
38	7656	0	142
38	7694	0	142
38	8058	0	142
38	8094	0	142
38	8120	0	142
38	8142	0	142
38	8222	0	142
38	8286	0	142
38	8538	0	142
38	8748	0	143
38	8838	0	143
38	8844	0	143
39	100	0	53
39	644	0	126
39	786	0	129
39	1056	0	132
39	1534	0	133
39	1836	0	141
39	2046	0	142
39	2064	0	142
39	2528	0	142
39	2558	0	142
39	2756	0	142
39	2812	0	142
39	2844	0	142
39	3042	0	142
39	3048	0	142
39	3160	0	142
39	3178	0	142
39	3446	0	142
39	3772	0	142
39	3832	0	142
39	3840	0	142
39	3888	0	142
39	3996	0	142
39	4146	0	142
39	4326	0	142
39	4536	0	142
39	4540	0	142
39	4548	0	142
39	4634	0	142
39	4658	0	142
39	4720	0	142
39	4782	0	142
39	5058	0	142
39	5072	0	142
39	5752	0	142
39	6070	0	142
39	6130	0	142
39	6202	0	142
39	6232	0	142
39	6344	0	142
39	6402	0	142
39	6410	0	142
39	6526	0	142
39	6826	0	142
39	6850	0	142
39	7028	0	142
39	7526	0	142
39	7538	0	142
39	7700	0	142
39	8002	0	142
39	8064	0	142
39	8162	0	142
39	8728	0	143
40	102	0	54
40	162	0	67
40	448	0	122
40	956	0	130
40	1094	0	132
40	1338	0	133
40	1412	0	133
40	1562	0	133
40	1772	0	141
40	1822	0	141
40	1882	0	141
40	2510	0	142
40	2848	0	142
40	2936	0	142
40	2950	0	142
40	3114	0	142
40	3152	0	142
40	3216	0	142
40	3388	0	142
40	3570	0	142
40	3618	0	142
40	4312	0	142
40	4506	0	142
40	4622	0	142
40	4942	0	142
40	4958	0	142
40	4988	0	142
40	5436	0	142
40	5888	0	142
40	5896	0	142
40	6044	0	142
40	6230	0	142
40	6286	0	142
40	6728	0	142
40	6812	0	142
40	6860	0	142
40	6864	0	142
40	7052	0	142
40	7620	0	142
40	7734	0	142
40	7988	0	142
40	7994	0	142
40	8056	0	142
40	8116	0	142
40	8332	0	142
40	8524	0	142
40	8618	0	143
41	108	0	56
41	1634	0	133
41	1892	0	141
41	1994	0	142
41	2332	0	142
41	2604	0	142
41	2658	0	142
41	2670	0	142
41	2676	0	142
41	2794	0	142
41	2804	0	142
41	2836	0	142
41	3192	0	142
41	3240	0	142
41	3554	0	142
41	3558	0	142
41	4526	0	142
41	4812	0	142
41	4866	0	142
41	4990	0	142
41	5260	0	142
41	5490	0	142
41	6164	0	142
41	7100	0	142
41	7678	0	142
41	8080	0	142
41	8248	0	142
41	8550	0	142
42	110	0	57
42	446	0	122
42	878	0	130
42	1274	0	132
42	1652	0	136
42	1964	0	141
42	1968	0	141
42	1982	0	142
42	2000	0	142
42	2084	0	142
42	2778	0	142
42	2782	0	142
42	2990	0	142
42	3002	0	142
42	3018	0	142
42	3214	0	142
42	3524	0	142
42	3562	0	142
42	3620	0	142
42	4192	0	142
42	4286	0	142
42	4532	0	142
42	4616	0	142
42	4654	0	142
42	5200	0	142
42	5296	0	142
42	5388	0	142
42	5470	0	142
42	5542	0	142
42	6154	0	142
42	6322	0	142
42	6784	0	142
42	7610	0	142
42	7736	0	142
42	7972	0	142
42	8176	0	142
42	8290	0	142
42	8318	0	142
42	8696	0	143
42	9030	0	143
43	118	0	58
43	696	0	127
43	760	0	128
43	1130	0	132
43	1148	0	132
43	1300	0	132
43	1382	0	133
43	1672	0	139
43	1676	0	139
43	1694	0	140
43	1898	0	141
43	2012	0	142
43	2116	0	142
43	2358	0	142
43	2516	0	142
43	2610	0	142
43	2926	0	142
43	3024	0	142
43	3058	0	142
43	3108	0	142
43	3112	0	142
43	3362	0	142
43	3496	0	142
43	3664	0	142
43	3872	0	142
43	4158	0	142
43	4360	0	142
43	4492	0	142
43	4500	0	142
43	4726	0	142
43	4752	0	142
43	4804	0	142
43	5180	0	142
43	5226	0	142
43	5384	0	142
43	5614	0	142
43	5780	0	142
43	5806	0	142
43	5898	0	142
43	6042	0	142
43	6896	0	142
43	6900	0	142
43	7056	0	142
43	7260	0	142
43	7658	0	142
43	7730	0	142
43	7996	0	142
43	8024	0	142
43	8046	0	142
43	8096	0	142
43	8118	0	142
43	8130	0	142
43	8746	0	143
44	120	0	59
44	442	0	121
44	544	0	124
44	744	0	128
44	1350	0	133
44	1900	0	141
44	2132	0	142
44	2158	0	142
44	2336	0	142
44	2394	0	142
44	2538	0	142
44	2774	0	142
44	2786	0	142
44	2840	0	142
44	2916	0	142
44	3022	0	142
44	3182	0	142
44	3360	0	142
44	3368	0	142
44	3868	0	142
44	4128	0	142
44	4298	0	142
44	4362	0	142
44	4544	0	142
44	4612	0	142
44	4746	0	142
44	4754	0	142
44	5262	0	142
44	5450	0	142
44	5462	0	142
44	5486	0	142
44	5828	0	142
44	5884	0	142
44	5964	0	142
44	6148	0	142
44	6152	0	142
44	6172	0	142
44	6666	0	142
44	6696	0	142
44	6786	0	142
44	6800	0	142
44	7144	0	142
44	7750	0	142
44	7982	0	142
44	8178	0	142
44	8262	0	142
44	8314	0	142
44	8548	0	142
44	8680	0	143
45	126	0	60
45	304	0	96
45	650	0	126
45	668	0	127
45	690	0	127
45	722	0	128
45	854	0	130
45	858	0	130
45	900	0	130
45	1142	0	132
45	1162	0	132
45	1306	0	132
45	1374	0	133
45	1492	0	133
45	1684	0	140
45	1806	0	141
45	2214	0	142
45	2696	0	142
45	2734	0	142
45	2898	0	142
45	3226	0	142
45	3280	0	142
45	3464	0	142
45	3604	0	142
45	3646	0	142
45	4120	0	142
45	4202	0	142
45	4250	0	142
45	4792	0	142
45	4796	0	142
45	4824	0	142
45	5672	0	142
45	5770	0	142
45	5816	0	142
45	5864	0	142
45	5872	0	142
45	5920	0	142
45	6006	0	142
45	6026	0	142
45	6030	0	142
45	6040	0	142
45	6128	0	142
45	6266	0	142
45	6462	0	142
45	6532	0	142
45	6542	0	142
45	6752	0	142
45	6838	0	142
45	7126	0	142
45	7324	0	142
45	7508	0	142
45	7580	0	142
45	7652	0	142
45	7764	0	142
45	7878	0	142
45	8006	0	142
45	8048	0	142
45	8068	0	142
45	8212	0	142
45	8274	0	142
45	8510	0	142
45	8570	0	143
45	8622	0	143
45	8634	0	143
45	8718	0	143
45	8826	0	143
45	8926	0	143
45	8990	0	143
45	9020	0	143
46	130	0	61
46	270	0	86
46	274	0	86
46	298	0	93
46	898	0	130
46	1012	0	132
46	1020	0	132
46	1058	0	132
46	1194	0	132
46	1206	0	132
46	1246	0	132
46	1402	0	133
46	1590	0	133
46	1952	0	141
46	2050	0	142
46	2152	0	142
46	2184	0	142
46	2204	0	142
46	2404	0	142
46	2570	0	142
46	2574	0	142
46	2588	0	142
46	3050	0	142
46	3266	0	142
46	3276	0	142
46	3284	0	142
46	3292	0	142
46	3316	0	142
46	3884	0	142
46	4556	0	142
46	4640	0	142
46	5086	0	142
46	5688	0	142
46	5842	0	142
46	5852	0	142
46	6054	0	142
46	6214	0	142
46	7136	0	142
46	7220	0	142
46	7516	0	142
46	7866	0	142
46	8154	0	142
46	8226	0	142
46	8966	0	143
46	9002	0	143
46	9006	0	143
47	132	0	61
47	234	0	85
47	276	0	86
47	282	0	88
47	520	0	124
47	998	0	131
47	1050	0	132
47	1410	0	133
47	1470	0	133
47	1908	0	141
47	2146	0	142
47	2370	0	142
47	2400	0	142
47	2548	0	142
47	2690	0	142
47	2724	0	142
47	2900	0	142
47	2932	0	142
47	2982	0	142
47	3128	0	142
47	3690	0	142
47	3810	0	142
47	3874	0	142
47	3934	0	142
47	3992	0	142
47	4148	0	142
47	4316	0	142
47	4354	0	142
47	4748	0	142
47	4984	0	142
47	5314	0	142
47	5572	0	142
47	6446	0	142
47	6760	0	142
47	6876	0	142
47	7054	0	142
47	7122	0	142
47	7252	0	142
47	8132	0	142
47	8306	0	142
47	8466	0	142
47	8478	0	142
47	8804	0	143
47	8848	0	143
48	134	0	62
48	346	0	102
48	424	0	121
48	450	0	122
48	620	0	126
48	656	0	127
48	670	0	127
48	770	0	128
48	1172	0	132
48	1314	0	133
48	1482	0	133
48	1838	0	141
48	2020	0	142
48	2040	0	142
48	2228	0	142
48	2852	0	142
48	3150	0	142
48	3668	0	142
48	3920	0	142
48	4310	0	142
48	4318	0	142
48	4602	0	142
48	4626	0	142
48	4798	0	142
48	5004	0	142
48	5070	0	142
48	5980	0	142
48	5984	0	142
48	6206	0	142
48	6312	0	142
48	6490	0	142
48	6740	0	142
48	6928	0	142
48	7524	0	142
48	8138	0	142
48	8220	0	142
48	8616	0	143
48	8750	0	143
48	8770	0	143
48	8964	0	143
49	136	0	63
49	160	0	67
49	428	0	121
49	528	0	124
49	860	0	130
49	1472	0	133
49	1506	0	133
49	1538	0	133
49	1552	0	133
49	2022	0	142
49	2188	0	142
49	2354	0	142
49	2420	0	142
49	2434	0	142
49	2716	0	142
49	2850	0	142
49	3158	0	142
49	3170	0	142
49	3504	0	142
49	4122	0	142
49	4262	0	142
49	4762	0	142
49	4776	0	142
49	4790	0	142
49	4846	0	142
49	5084	0	142
49	5336	0	142
49	5700	0	142
49	5858	0	142
49	5976	0	142
49	6264	0	142
49	6504	0	142
49	6736	0	142
49	6816	0	142
49	6910	0	142
49	6914	0	142
49	6930	0	142
49	6994	0	142
49	7322	0	142
49	7572	0	142
49	7688	0	142
49	7782	0	142
49	7806	0	142
49	7922	0	142
49	7954	0	142
49	8518	0	142
49	8762	0	143
49	8962	0	143
50	138	0	64
50	172	0	67
50	600	0	126
50	642	0	126
50	782	0	129
50	924	0	130
50	946	0	130
50	1008	0	132
50	1060	0	132
50	1248	0	132
50	1600	0	133
50	1716	0	141
50	1830	0	141
50	2042	0	142
50	2048	0	142
50	2164	0	142
50	2560	0	142
50	2628	0	142
50	2814	0	142
50	2938	0	142
50	2958	0	142
50	3144	0	142
50	3234	0	142
50	3422	0	142
50	4070	0	142
50	4406	0	142
50	5050	0	142
50	5068	0	142
50	5164	0	142
50	5420	0	142
50	5696	0	142
50	5958	0	142
50	6304	0	142
50	6332	0	142
50	6408	0	142
50	6570	0	142
50	6676	0	142
50	6712	0	142
50	6912	0	142
50	7156	0	142
50	7514	0	142
50	7552	0	142
50	7634	0	142
50	7902	0	142
50	7946	0	142
50	8192	0	142
50	8224	0	142
50	8310	0	142
50	8684	0	143
50	8894	0	143
51	142	0	64
51	250	0	86
51	316	0	98
51	380	0	110
51	666	0	127
51	700	0	127
51	836	0	130
51	1108	0	132
51	1160	0	132
51	1422	0	133
51	1478	0	133
51	1518	0	133
51	1556	0	133
51	1800	0	141
51	2424	0	142
51	2498	0	142
51	2568	0	142
51	3054	0	142
51	3142	0	142
51	3406	0	142
51	3420	0	142
51	3650	0	142
51	3654	0	142
51	3876	0	142
51	3908	0	142
51	3942	0	142
51	4042	0	142
51	4254	0	142
51	4600	0	142
51	5010	0	142
51	5046	0	142
51	5064	0	142
51	5344	0	142
51	5582	0	142
51	5992	0	142
51	6124	0	142
51	6308	0	142
51	6354	0	142
51	6428	0	142
51	6472	0	142
51	6478	0	142
51	6984	0	142
51	7062	0	142
51	7140	0	142
51	7150	0	142
51	7168	0	142
51	7196	0	142
51	7246	0	142
51	7330	0	142
51	7488	0	142
51	7512	0	142
51	7536	0	142
51	7758	0	142
51	7850	0	142
51	8010	0	142
51	8032	0	142
51	8050	0	142
51	8230	0	142
51	8468	0	142
51	8574	0	143
51	8640	0	143
51	8798	0	143
51	8856	0	143
52	144	0	65
52	268	0	86
52	434	0	121
52	530	0	124
52	686	0	127
52	1066	0	132
52	1076	0	132
52	1170	0	132
52	1228	0	132
52	1398	0	133
52	1520	0	133
52	1720	0	141
52	2090	0	142
52	2350	0	142
52	2402	0	142
52	2422	0	142
52	2442	0	142
52	2494	0	142
52	3176	0	142
52	3426	0	142
52	3448	0	142
52	3466	0	142
52	3580	0	142
52	3816	0	142
52	3830	0	142
52	3854	0	142
52	4240	0	142
52	4462	0	142
52	4850	0	142
52	4896	0	142
52	4978	0	142
52	4996	0	142
52	5076	0	142
52	5162	0	142
52	5168	0	142
52	5396	0	142
52	5456	0	142
52	5772	0	142
52	5990	0	142
52	6008	0	142
52	6168	0	142
52	6240	0	142
52	6576	0	142
52	6660	0	142
52	6748	0	142
52	6856	0	142
52	6936	0	142
52	7036	0	142
52	7194	0	142
52	7930	0	142
52	8140	0	142
52	8344	0	142
52	8462	0	142
52	8606	0	143
52	8724	0	143
52	8758	0	143
52	9000	0	143
53	148	0	66
53	248	0	86
53	258	0	86
53	328	0	98
53	622	0	126
53	896	0	130
53	1332	0	133
53	1486	0	133
53	1792	0	141
53	1798	0	141
53	2068	0	142
53	2198	0	142
53	2202	0	142
53	2444	0	142
53	2452	0	142
53	2592	0	142
53	2736	0	142
53	2890	0	142
53	3132	0	142
53	3268	0	142
53	3418	0	142
53	4012	0	142
53	4078	0	142
53	4732	0	142
53	4780	0	142
53	4898	0	142
53	4982	0	142
53	5380	0	142
53	5750	0	142
53	5836	0	142
53	5988	0	142
53	6032	0	142
53	6226	0	142
53	6296	0	142
53	6744	0	142
53	7012	0	142
53	7174	0	142
53	7952	0	142
53	7964	0	142
53	8126	0	142
53	8144	0	142
53	8464	0	142
53	8520	0	142
53	8970	0	143
54	156	0	67
54	228	0	82
54	362	0	107
54	624	0	126
54	632	0	126
54	688	0	127
54	842	0	130
54	892	0	130
54	908	0	130
54	1290	0	132
54	1360	0	133
54	1576	0	133
54	1580	0	133
54	1696	0	140
54	1884	0	141
54	2008	0	142
54	2128	0	142
54	2922	0	142
54	3020	0	142
54	3252	0	142
54	3258	0	142
54	3452	0	142
54	3552	0	142
54	3662	0	142
54	3784	0	142
54	3820	0	142
54	4010	0	142
54	4132	0	142
54	4154	0	142
54	4162	0	142
54	4266	0	142
54	4290	0	142
54	4514	0	142
54	4718	0	142
54	5166	0	142
54	5252	0	142
54	5280	0	142
54	5284	0	142
54	5328	0	142
54	5366	0	142
54	5474	0	142
54	5484	0	142
54	5556	0	142
54	5560	0	142
54	5726	0	142
54	5824	0	142
54	6062	0	142
54	6082	0	142
54	6242	0	142
54	6320	0	142
54	6590	0	142
54	6678	0	142
54	6700	0	142
54	6874	0	142
54	7604	0	142
54	7644	0	142
54	7680	0	142
54	7746	0	142
54	7804	0	142
54	7808	0	142
54	7898	0	142
54	8752	0	143
54	8808	0	143
54	8922	0	143
54	9054	0	145
55	178	0	67
55	456	0	122
55	602	0	126
55	1072	0	132
55	1490	0	133
55	1508	0	133
55	1610	0	133
55	2024	0	142
55	2038	0	142
55	2180	0	142
55	2186	0	142
55	2438	0	142
55	2888	0	142
55	3038	0	142
55	3310	0	142
55	3506	0	142
55	3676	0	142
55	4004	0	142
55	4200	0	142
55	4590	0	142
55	4760	0	142
55	5044	0	142
55	5234	0	142
55	5422	0	142
55	6234	0	142
55	6480	0	142
55	6486	0	142
55	6742	0	142
55	6818	0	142
55	6892	0	142
55	7148	0	142
55	7222	0	142
55	7278	0	142
55	7546	0	142
55	7798	0	142
55	7818	0	142
55	8134	0	142
55	8278	0	142
55	8788	0	143
55	8820	0	143
55	8828	0	143
55	8998	0	143
56	180	0	67
56	252	0	86
56	294	0	91
56	422	0	121
56	500	0	124
56	512	0	124
56	552	0	124
56	640	0	126
56	780	0	129
56	932	0	130
56	1282	0	132
56	1326	0	133
56	1524	0	133
56	1528	0	133
56	1546	0	133
56	1722	0	141
56	1764	0	141
56	1778	0	141
56	1870	0	141
56	1924	0	141
56	2488	0	142
56	2544	0	142
56	2954	0	142
56	3470	0	142
56	3544	0	142
56	3938	0	142
56	3948	0	142
56	4006	0	142
56	4418	0	142
56	4778	0	142
56	4800	0	142
56	4832	0	142
56	5060	0	142
56	5318	0	142
56	5636	0	142
56	5718	0	142
56	5854	0	142
56	5960	0	142
56	6102	0	142
56	6190	0	142
56	6198	0	142
56	6342	0	142
56	6552	0	142
56	7030	0	142
56	7282	0	142
56	7314	0	142
56	7698	0	142
56	8216	0	142
56	8594	0	143
56	8832	0	143
56	8880	0	143
56	8888	0	143
57	184	0	68
57	202	0	75
57	382	0	110
57	562	0	124
57	1198	0	132
57	1430	0	133
57	1458	0	133
57	4384	0	142
57	4426	0	142
57	4476	0	142
57	4482	0	142
57	4558	0	142
57	5120	0	142
57	5584	0	142
57	5630	0	142
57	7306	0	142
57	7344	0	142
57	7354	0	142
57	7458	0	142
57	8444	0	142
58	186	0	68
58	490	0	123
58	592	0	126
58	824	0	130
58	1218	0	132
58	1448	0	133
58	1724	0	141
58	1732	0	141
58	2862	0	142
58	4422	0	142
58	5022	0	142
58	5030	0	142
58	5104	0	142
58	5112	0	142
58	5152	0	142
58	5740	0	142
58	5744	0	142
58	6110	0	142
58	6366	0	142
58	6378	0	142
58	6950	0	142
58	7308	0	142
58	7340	0	142
58	7370	0	142
58	7406	0	142
58	7430	0	142
58	7860	0	142
58	8380	0	142
58	8402	0	142
59	188	0	69
59	384	0	111
59	582	0	125
59	704	0	127
59	794	0	129
59	1214	0	132
59	1240	0	132
59	4568	0	142
59	4580	0	142
59	5032	0	142
59	5108	0	142
59	5146	0	142
59	5154	0	142
59	5592	0	142
59	6360	0	142
59	6376	0	142
59	7394	0	142
59	7418	0	142
59	8376	0	142
59	8388	0	142
60	190	0	70
60	482	0	123
60	488	0	123
60	802	0	130
60	806	0	130
60	1238	0	132
60	1438	0	133
60	1452	0	133
60	1758	0	141
60	4430	0	142
60	4570	0	142
60	5100	0	142
60	5110	0	142
60	5588	0	142
60	6112	0	142
60	6952	0	142
60	6960	0	142
60	7396	0	142
60	7404	0	142
60	7438	0	142
60	7858	0	142
61	192	0	71
61	818	0	130
61	1740	0	141
61	1748	0	141
61	4436	0	142
61	5038	0	142
61	5150	0	142
61	5598	0	142
61	5644	0	142
61	7202	0	142
61	7212	0	142
61	7302	0	142
61	7466	0	142
61	7872	0	142
61	8384	0	142
61	8392	0	142
61	8434	0	142
62	194	0	72
62	404	0	116
62	830	0	130
62	1726	0	141
62	1752	0	141
62	4382	0	142
62	4390	0	142
62	4576	0	142
62	5098	0	142
62	5118	0	142
62	5148	0	142
62	6114	0	142
62	6954	0	142
62	7362	0	142
62	7402	0	142
62	7432	0	142
63	196	0	73
63	566	0	124
63	1024	0	132
63	1242	0	132
63	4586	0	142
63	5648	0	142
63	6116	0	142
63	6358	0	142
63	7218	0	142
63	7332	0	142
63	7346	0	142
63	7864	0	142
63	8354	0	142
63	8414	0	142
63	8430	0	142
63	8882	0	143
64	198	0	74
64	290	0	91
64	296	0	92
64	418	0	121
64	478	0	123
64	556	0	124
64	822	0	130
64	1022	0	132
64	1040	0	132
64	1046	0	132
64	1182	0	132
64	1200	0	132
64	1210	0	132
64	1256	0	132
64	1260	0	132
64	1780	0	141
64	2470	0	142
64	2474	0	142
64	3294	0	142
64	3476	0	142
64	3652	0	142
64	4386	0	142
64	4400	0	142
64	4638	0	142
64	5088	0	142
64	6356	0	142
64	7352	0	142
64	7356	0	142
64	7376	0	142
64	8038	0	142
64	8448	0	142
64	8586	0	143
65	200	0	75
65	408	0	117
65	416	0	121
65	486	0	123
65	572	0	124
65	576	0	124
65	1432	0	133
65	1436	0	133
65	2472	0	142
65	4442	0	142
65	7350	0	142
65	7382	0	142
65	8406	0	142
65	8410	0	142
65	8416	0	142
65	8420	0	142
66	204	0	76
66	564	0	124
66	574	0	124
66	1042	0	132
66	1202	0	132
66	1942	0	141
66	1950	0	141
66	2476	0	142
66	2482	0	142
66	3052	0	142
66	4396	0	142
66	4450	0	142
66	4474	0	142
66	5132	0	142
66	5136	0	142
66	6122	0	142
66	6364	0	142
66	6380	0	142
66	7292	0	142
66	7338	0	142
66	7852	0	142
66	7868	0	142
66	8404	0	142
66	8408	0	142
66	8428	0	142
67	206	0	77
67	464	0	122
67	2742	0	142
67	2746	0	142
67	4472	0	142
67	4880	0	142
67	5130	0	142
67	5506	0	142
67	6382	0	142
67	7066	0	142
67	7290	0	142
67	8036	0	142
67	8474	0	142
67	8664	0	143
67	8712	0	143
67	8984	0	143
68	212	0	79
68	242	0	86
68	518	0	124
68	612	0	126
68	660	0	127
68	940	0	130
68	1048	0	132
68	1106	0	132
68	1204	0	132
68	1476	0	133
68	1512	0	133
68	1620	0	133
68	1680	0	140
68	1708	0	140
68	1920	0	141
68	2098	0	142
68	2178	0	142
68	2222	0	142
68	2374	0	142
68	2412	0	142
68	2416	0	142
68	2688	0	142
68	2740	0	142
68	2748	0	142
68	3246	0	142
68	3478	0	142
68	3682	0	142
68	3846	0	142
68	4452	0	142
68	4470	0	142
68	4876	0	142
68	4950	0	142
68	5206	0	142
68	5210	0	142
68	5232	0	142
68	5346	0	142
68	5622	0	142
68	5862	0	142
68	6388	0	142
68	6422	0	142
68	6594	0	142
68	6654	0	142
68	7070	0	142
68	7112	0	142
68	8018	0	142
68	8658	0	143
68	8662	0	143
68	8710	0	143
68	8870	0	143
68	8900	0	143
68	8910	0	143
68	8974	0	143
68	8988	0	143
68	9042	0	143
69	214	0	80
69	278	0	87
69	284	0	88
69	306	0	96
69	460	0	122
69	610	0	126
69	868	0	130
69	916	0	130
69	1100	0	132
69	1322	0	133
69	1566	0	133
69	1622	0	133
69	2014	0	142
69	2076	0	142
69	2398	0	142
69	2582	0	142
69	2636	0	142
69	3222	0	142
69	3274	0	142
69	3290	0	142
69	3334	0	142
69	3340	0	142
69	3444	0	142
69	3614	0	142
69	3768	0	142
69	3970	0	142
69	4144	0	142
69	4170	0	142
69	4174	0	142
69	4328	0	142
69	4358	0	142
69	4758	0	142
69	4830	0	142
69	5078	0	142
69	5500	0	142
69	5578	0	142
69	5682	0	142
69	5784	0	142
69	5788	0	142
69	5930	0	142
69	6012	0	142
69	6052	0	142
69	6336	0	142
69	6464	0	142
69	6538	0	142
69	7780	0	142
69	7820	0	142
69	7880	0	142
69	8030	0	142
69	8160	0	142
69	8240	0	142
69	8454	0	142
69	8492	0	142
69	8512	0	142
69	8592	0	143
69	8596	0	143
70	238	0	86
70	536	0	124
70	606	0	126
70	844	0	130
70	910	0	130
70	918	0	130
70	1064	0	132
70	1102	0	132
70	1156	0	132
70	1354	0	133
70	1394	0	133
70	1666	0	139
70	1670	0	139
70	1860	0	141
70	1890	0	141
70	1972	0	141
70	1976	0	141
70	2162	0	142
70	2514	0	142
70	2642	0	142
70	2680	0	142
70	2838	0	142
70	2940	0	142
70	2968	0	142
70	2988	0	142
70	3518	0	142
70	3634	0	142
70	3916	0	142
70	3924	0	142
70	3968	0	142
70	4096	0	142
70	4136	0	142
70	4140	0	142
70	4348	0	142
70	4356	0	142
70	4456	0	142
70	4488	0	142
70	4822	0	142
70	4870	0	142
70	4954	0	142
70	5202	0	142
70	5220	0	142
70	5288	0	142
70	5378	0	142
70	5424	0	142
70	5498	0	142
70	5544	0	142
70	5710	0	142
70	6140	0	142
70	6228	0	142
70	6250	0	142
70	6254	0	142
70	6288	0	142
70	6498	0	142
70	6670	0	142
70	6692	0	142
70	6762	0	142
70	6836	0	142
70	7050	0	142
70	7190	0	142
70	7578	0	142
70	7630	0	142
70	7822	0	142
70	8078	0	142
70	8534	0	142
70	8558	0	142
70	8698	0	143
70	8736	0	143
70	9036	0	143
71	240	0	86
71	524	0	124
71	614	0	126
71	676	0	127
71	724	0	128
71	732	0	128
71	1062	0	132
71	1150	0	132
71	1158	0	132
71	1340	0	133
71	1510	0	133
71	2034	0	142
71	2460	0	142
71	3036	0	142
71	3270	0	142
71	3286	0	142
71	3308	0	142
71	3430	0	142
71	3454	0	142
71	3638	0	142
71	3746	0	142
71	3750	0	142
71	3902	0	142
71	3930	0	142
71	3954	0	142
71	3964	0	142
71	4050	0	142
71	4198	0	142
71	4252	0	142
71	4546	0	142
71	4624	0	142
71	4944	0	142
71	4968	0	142
71	5052	0	142
71	5668	0	142
71	5712	0	142
71	5734	0	142
71	5886	0	142
71	5906	0	142
71	5914	0	142
71	5940	0	142
71	5996	0	142
71	6028	0	142
71	6084	0	142
71	6350	0	142
71	6622	0	142
71	6788	0	142
71	6862	0	142
71	6990	0	142
71	7142	0	142
71	7250	0	142
71	7686	0	142
71	7948	0	142
71	8026	0	142
71	8054	0	142
71	8598	0	143
71	8612	0	143
71	8766	0	143
71	8850	0	143
71	8930	0	143
72	254	0	86
72	266	0	86
72	692	0	127
72	936	0	130
72	1070	0	132
72	1104	0	132
72	1286	0	132
72	1334	0	133
72	1544	0	133
72	1588	0	133
72	1690	0	140
72	1702	0	140
72	1812	0	141
72	1824	0	141
72	2346	0	142
72	2360	0	142
72	2810	0	142
72	2928	0	142
72	3174	0	142
72	3244	0	142
72	3590	0	142
72	3616	0	142
72	3822	0	142
72	3932	0	142
72	4124	0	142
72	4178	0	142
72	4372	0	142
72	4874	0	142
72	5184	0	142
72	5212	0	142
72	5368	0	142
72	5434	0	142
72	5782	0	142
72	6046	0	142
72	6068	0	142
72	6204	0	142
72	6414	0	142
72	6820	0	142
72	7158	0	142
72	7186	0	142
72	7266	0	142
72	7636	0	142
72	7696	0	142
72	8020	0	142
72	8166	0	142
72	8486	0	142
72	8498	0	142
72	8764	0	143
72	8786	0	143
72	8790	0	143
72	8916	0	143
73	264	0	86
73	288	0	90
73	436	0	121
73	558	0	124
73	626	0	126
73	658	0	127
73	788	0	129
73	856	0	130
73	950	0	130
73	1000	0	131
73	1230	0	132
73	1254	0	132
73	1532	0	133
73	1550	0	133
73	1714	0	140
73	1854	0	141
73	2110	0	142
73	2148	0	142
73	2224	0	142
73	2462	0	142
73	3508	0	142
73	3696	0	142
73	3756	0	142
73	3786	0	142
73	3836	0	142
73	3906	0	142
73	3982	0	142
73	4072	0	142
73	4236	0	142
73	4402	0	142
73	4648	0	142
73	4764	0	142
73	4794	0	142
73	5042	0	142
73	5348	0	142
73	5408	0	142
73	5516	0	142
73	5650	0	142
73	5670	0	142
73	5690	0	142
73	5764	0	142
73	6066	0	142
73	6186	0	142
73	6656	0	142
73	6988	0	142
73	7110	0	142
73	7116	0	142
73	7154	0	142
73	7224	0	142
73	7276	0	142
73	7702	0	142
73	7794	0	142
73	7944	0	142
73	8086	0	142
73	8146	0	142
73	8336	0	142
73	8568	0	143
73	8890	0	143
74	292	0	91
74	420	0	121
74	554	0	124
74	790	0	129
74	834	0	130
74	1044	0	132
74	1220	0	132
74	1530	0	133
74	1762	0	141
74	1934	0	141
74	1944	0	141
74	4444	0	142
74	4480	0	142
74	4582	0	142
74	4642	0	142
74	5106	0	142
74	5634	0	142
74	5640	0	142
74	6118	0	142
74	6982	0	142
74	7336	0	142
74	7360	0	142
74	7400	0	142
74	8442	0	142
75	300	0	93
75	308	0	96
75	318	0	98
75	462	0	122
75	720	0	128
75	902	0	130
75	1140	0	132
75	1782	0	141
75	1786	0	141
75	3410	0	142
75	3848	0	142
75	3878	0	142
75	3910	0	142
75	4180	0	142
75	4222	0	142
75	4882	0	142
75	5510	0	142
75	5580	0	142
75	5692	0	142
75	5866	0	142
75	6048	0	142
75	6134	0	142
75	6384	0	142
75	6416	0	142
75	6420	0	142
75	6430	0	142
75	6442	0	142
75	7328	0	142
75	7560	0	142
75	8016	0	142
75	8148	0	142
75	8588	0	143
75	8666	0	143
75	8876	0	143
76	302	0	95
76	466	0	122
76	664	0	127
76	1514	0	133
76	1594	0	133
76	3330	0	142
76	3512	0	142
76	3642	0	142
76	3754	0	142
76	4064	0	142
76	4332	0	142
76	4646	0	142
76	5868	0	142
76	5994	0	142
76	5998	0	142
76	6036	0	142
76	6086	0	142
76	6682	0	142
76	6706	0	142
76	7064	0	142
76	7068	0	142
76	7234	0	142
76	7240	0	142
76	7562	0	142
76	7772	0	142
76	7836	0	142
76	8238	0	142
76	8490	0	142
76	8500	0	142
76	8800	0	143
76	8980	0	143
77	312	0	98
77	1302	0	132
77	2210	0	142
77	3482	0	142
77	3486	0	142
77	3492	0	142
77	3794	0	142
77	3800	0	142
77	4104	0	142
77	4166	0	142
77	5616	0	142
77	6516	0	142
77	6638	0	142
77	6686	0	142
77	7258	0	142
77	7660	0	142
77	7664	0	142
77	7838	0	142
77	7846	0	142
77	8044	0	142
77	8652	0	143
77	8904	0	143
78	338	0	100
78	458	0	122
78	504	0	124
78	604	0	126
78	714	0	128
78	938	0	130
78	1054	0	132
78	1284	0	132
78	1342	0	133
78	1404	0	133
78	1814	0	141
78	1922	0	141
78	1978	0	142
78	2018	0	142
78	2428	0	142
78	2500	0	142
78	2580	0	142
78	2584	0	142
78	2630	0	142
78	2718	0	142
78	3318	0	142
78	3578	0	142
78	3612	0	142
78	3630	0	142
78	3766	0	142
78	3844	0	142
78	3900	0	142
78	4044	0	142
78	4142	0	142
78	4884	0	142
78	4948	0	142
78	5170	0	142
78	5204	0	142
78	5216	0	142
78	5230	0	142
78	5410	0	142
78	5760	0	142
78	5818	0	142
78	6078	0	142
78	6252	0	142
78	6302	0	142
78	6340	0	142
78	6406	0	142
78	6520	0	142
78	6554	0	142
78	6592	0	142
78	6672	0	142
78	7004	0	142
78	7074	0	142
78	7152	0	142
78	7228	0	142
78	7556	0	142
78	7576	0	142
78	7816	0	142
78	7894	0	142
78	7906	0	142
78	8566	0	143
78	8604	0	143
78	8642	0	143
78	8794	0	143
78	8878	0	143
79	352	0	104
79	884	0	130
79	1090	0	132
79	4270	0	142
79	4908	0	142
79	7640	0	142
80	360	0	107
80	1358	0	133
80	1388	0	133
80	1570	0	133
80	1636	0	133
80	1642	0	133
80	2130	0	142
80	2160	0	142
80	2602	0	142
80	2648	0	142
80	2672	0	142
80	2798	0	142
80	2998	0	142
80	3124	0	142
80	3194	0	142
80	3526	0	142
80	4024	0	142
80	4280	0	142
80	5392	0	142
80	5446	0	142
80	5468	0	142
80	5530	0	142
80	5536	0	142
80	5966	0	142
80	6280	0	142
80	6774	0	142
80	7612	0	142
80	8102	0	142
80	8204	0	142
80	8250	0	142
80	8254	0	142
80	8324	0	142
80	8540	0	142
80	8678	0	143
80	8692	0	143
81	386	0	111
81	494	0	123
81	1030	0	132
81	1036	0	132
81	1454	0	133
81	1756	0	141
81	4394	0	142
81	5028	0	142
81	5090	0	142
81	5140	0	142
81	5144	0	142
81	5596	0	142
81	7208	0	142
81	7358	0	142
81	7374	0	142
81	8350	0	142
81	8368	0	142
81	8378	0	142
82	388	0	112
82	492	0	123
82	568	0	124
82	706	0	128
82	798	0	129
82	1212	0	132
82	1236	0	132
82	1426	0	133
82	1730	0	141
82	2864	0	142
82	4376	0	142
82	4398	0	142
82	4428	0	142
82	5014	0	142
82	6370	0	142
82	7348	0	142
82	7364	0	142
82	7408	0	142
82	7452	0	142
82	7456	0	142
82	8382	0	142
83	390	0	112
83	1446	0	133
83	1450	0	133
83	2866	0	142
83	4392	0	142
83	4432	0	142
83	5016	0	142
83	5590	0	142
83	7210	0	142
83	7366	0	142
83	7428	0	142
83	7442	0	142
83	7468	0	142
83	7862	0	142
84	392	0	113
84	396	0	114
84	400	0	115
84	5036	0	142
84	5096	0	142
84	6966	0	142
84	6974	0	142
84	7446	0	142
85	394	0	114
86	398	0	115
86	402	0	115
86	1444	0	133
86	4380	0	142
86	4434	0	142
86	4578	0	142
86	6962	0	142
86	7390	0	142
86	7420	0	142
86	7474	0	142
86	8386	0	142
86	8396	0	142
87	406	0	116
87	550	0	124
87	702	0	127
87	1026	0	132
87	1032	0	132
87	1196	0	132
87	1232	0	132
87	1244	0	132
87	1428	0	133
87	1940	0	141
87	2478	0	142
87	4440	0	142
87	4448	0	142
87	5138	0	142
87	6104	0	142
87	7304	0	142
87	7334	0	142
87	7342	0	142
88	410	0	118
88	414	0	121
88	5602	0	142
88	7384	0	142
88	8424	0	142
89	412	0	120
89	484	0	123
89	1434	0	133
89	4572	0	142
89	8418	0	142
89	8422	0	142
90	432	0	121
90	502	0	124
90	594	0	126
90	654	0	126
90	1280	0	132
90	1462	0	133
90	1480	0	133
90	1612	0	133
90	1624	0	133
90	2062	0	142
90	2182	0	142
90	2226	0	142
90	2532	0	142
90	2874	0	142
90	3586	0	142
90	3700	0	142
90	3894	0	142
90	3898	0	142
90	3944	0	142
90	3950	0	142
90	4058	0	142
90	4588	0	142
90	4848	0	142
90	5240	0	142
90	5244	0	142
90	5332	0	142
90	5738	0	142
90	6476	0	142
90	6846	0	142
90	6926	0	142
90	6942	0	142
90	7014	0	142
90	7118	0	142
90	8356	0	142
90	8576	0	143
90	8818	0	143
91	444	0	122
91	880	0	130
91	1894	0	141
91	1902	0	141
91	1988	0	142
91	2248	0	142
91	2334	0	142
91	2656	0	142
91	2792	0	142
91	3122	0	142
91	3370	0	142
91	3394	0	142
91	3528	0	142
91	3862	0	142
91	4858	0	142
91	4862	0	142
91	5444	0	142
91	6778	0	142
91	6806	0	142
91	6884	0	142
91	7098	0	142
91	7102	0	142
91	8264	0	142
91	8322	0	142
92	468	0	123
92	2698	0	142
92	2706	0	142
92	3322	0	142
92	3344	0	142
92	3644	0	142
92	3792	0	142
92	4036	0	142
92	4228	0	142
92	4248	0	142
92	5310	0	142
92	6000	0	142
92	6460	0	142
92	6754	0	142
92	7238	0	142
92	7242	0	142
92	8042	0	142
92	8654	0	143
93	470	0	123
93	3272	0	142
93	3326	0	142
93	3332	0	142
93	3602	0	142
93	3640	0	142
93	3718	0	142
93	3752	0	142
93	4032	0	142
93	5302	0	142
93	5502	0	142
93	5618	0	142
93	5624	0	142
93	5846	0	142
93	5918	0	142
93	6088	0	142
93	6432	0	142
93	7590	0	142
93	7766	0	142
93	8600	0	143
93	8908	0	143
94	472	0	123
94	522	0	124
94	532	0	124
94	1074	0	132
94	1294	0	132
94	1416	0	133
94	2058	0	142
94	2096	0	142
94	2108	0	142
94	2194	0	142
94	2218	0	142
94	2406	0	142
94	2502	0	142
94	2556	0	142
94	2686	0	142
94	2892	0	142
94	3350	0	142
94	3480	0	142
94	3582	0	142
94	3672	0	142
94	3680	0	142
94	3742	0	142
94	4052	0	142
94	4084	0	142
94	4110	0	142
94	4150	0	142
94	4246	0	142
94	4538	0	142
94	4766	0	142
94	4770	0	142
94	5006	0	142
94	5190	0	142
94	5218	0	142
94	5476	0	142
94	5610	0	142
94	5722	0	142
94	5796	0	142
94	5876	0	142
94	5908	0	142
94	5942	0	142
94	5952	0	142
94	6002	0	142
94	6514	0	142
94	6558	0	142
94	7184	0	142
94	7544	0	142
94	7570	0	142
94	7600	0	142
94	7628	0	142
94	7708	0	142
94	7792	0	142
94	7834	0	142
94	8092	0	142
94	8128	0	142
94	8234	0	142
94	8572	0	143
94	8802	0	143
94	8822	0	143
94	8862	0	143
94	8956	0	143
94	8972	0	143
95	476	0	123
95	810	0	130
95	1456	0	133
95	1926	0	141
95	1938	0	141
95	1946	0	141
95	3472	0	142
95	4388	0	142
95	5156	0	142
95	6106	0	142
95	6944	0	142
95	7874	0	142
95	8390	0	142
95	8400	0	142
95	8432	0	142
95	8446	0	142
95	8886	0	143
96	480	0	123
96	570	0	124
96	580	0	125
96	1028	0	132
96	1034	0	132
96	1746	0	141
96	1760	0	141
96	5114	0	142
96	5122	0	142
96	5126	0	142
96	7206	0	142
96	7298	0	142
96	7386	0	142
96	8412	0	142
96	8426	0	142
97	496	0	123
97	820	0	130
97	1728	0	141
97	1930	0	141
97	1936	0	141
97	1948	0	141
97	2868	0	142
97	5020	0	142
97	5026	0	142
97	5092	0	142
97	5134	0	142
97	5632	0	142
97	6956	0	142
97	6980	0	142
97	7410	0	142
97	7464	0	142
97	7854	0	142
97	8364	0	142
97	8440	0	142
98	498	0	124
98	684	0	127
98	812	0	130
98	2858	0	142
98	2878	0	142
98	3312	0	142
98	3946	0	142
98	4420	0	142
98	5158	0	142
98	5748	0	142
98	6924	0	142
98	7312	0	142
98	7316	0	142
99	560	0	124
99	792	0	129
99	1014	0	132
99	1734	0	141
99	2480	0	142
99	2486	0	142
99	2576	0	142
99	4438	0	142
99	4562	0	142
99	4566	0	142
99	5012	0	142
99	5040	0	142
99	5606	0	142
99	7380	0	142
99	7416	0	142
99	7450	0	142
99	7484	0	142
99	8348	0	142
100	578	0	125
100	1016	0	132
100	1736	0	141
100	4560	0	142
100	5124	0	142
100	5128	0	142
100	7460	0	142
101	584	0	126
101	816	0	130
101	828	0	130
101	2872	0	142
101	5746	0	142
101	6948	0	142
101	7216	0	142
101	8374	0	142
102	586	0	126
102	804	0	130
102	1216	0	132
102	2870	0	142
102	4424	0	142
102	4564	0	142
102	5642	0	142
102	6372	0	142
102	6968	0	142
102	7200	0	142
102	7214	0	142
102	7388	0	142
102	7398	0	142
102	7414	0	142
102	7448	0	142
102	7482	0	142
102	8352	0	142
102	8372	0	142
102	8436	0	142
103	588	0	126
103	796	0	129
103	808	0	130
103	1234	0	132
103	1754	0	141
103	1932	0	141
103	4378	0	142
103	4478	0	142
103	4584	0	142
103	5102	0	142
103	5142	0	142
103	5586	0	142
103	5594	0	142
103	5600	0	142
103	5604	0	142
103	6362	0	142
103	6374	0	142
103	6970	0	142
103	7204	0	142
103	7294	0	142
103	8366	0	142
103	8398	0	142
103	8438	0	142
103	8884	0	143
104	590	0	126
104	800	0	130
104	1442	0	133
104	1744	0	141
104	5018	0	142
104	5024	0	142
104	5034	0	142
104	5116	0	142
104	5742	0	142
104	6958	0	142
104	6978	0	142
104	7296	0	142
104	7300	0	142
104	7434	0	142
104	7444	0	142
104	7478	0	142
104	7856	0	142
104	8370	0	142
105	628	0	126
105	756	0	128
105	1144	0	132
105	1484	0	133
105	1500	0	133
105	1568	0	133
105	1578	0	133
105	1856	0	141
105	1962	0	141
105	1966	0	141
105	1980	0	142
105	2436	0	142
105	2518	0	142
105	2522	0	142
105	2600	0	142
105	2758	0	142
105	2984	0	142
105	3126	0	142
105	3416	0	142
105	3438	0	142
105	4028	0	142
105	4152	0	142
105	4190	0	142
105	4366	0	142
105	4518	0	142
105	4596	0	142
105	4608	0	142
105	4652	0	142
105	4994	0	142
105	5174	0	142
105	5224	0	142
105	5360	0	142
105	5382	0	142
105	5814	0	142
105	6174	0	142
105	6328	0	142
105	6484	0	142
105	6840	0	142
105	6920	0	142
105	7090	0	142
105	7264	0	142
105	7754	0	142
105	7790	0	142
105	8536	0	142
105	8546	0	142
105	8646	0	143
105	8690	0	143
105	8704	0	143
105	8744	0	143
105	8774	0	143
105	8836	0	143
105	9028	0	143
105	9046	0	143
106	634	0	126
106	718	0	128
106	736	0	128
106	846	0	130
106	920	0	130
106	926	0	130
106	948	0	130
106	986	0	131
106	1366	0	133
106	1418	0	133
106	1474	0	133
106	1804	0	141
106	1876	0	141
106	2056	0	142
106	2206	0	142
106	2380	0	142
106	2390	0	142
106	2410	0	142
106	2886	0	142
106	2966	0	142
106	2978	0	142
106	3204	0	142
106	3224	0	142
106	3548	0	142
106	3572	0	142
106	3626	0	142
106	3774	0	142
106	3880	0	142
106	3994	0	142
106	4134	0	142
106	4156	0	142
106	4210	0	142
106	4238	0	142
106	4350	0	142
106	4454	0	142
106	4466	0	142
106	4630	0	142
106	4724	0	142
106	5282	0	142
106	5666	0	142
106	5878	0	142
106	6022	0	142
106	6034	0	142
106	6092	0	142
106	6300	0	142
106	7232	0	142
106	7812	0	142
106	8084	0	142
106	8778	0	143
106	8996	0	143
106	9024	0	143
107	698	0	127
107	710	0	128
107	862	0	130
107	1250	0	132
107	1362	0	133
107	1376	0	133
107	1858	0	141
107	2080	0	142
107	2176	0	142
107	2414	0	142
107	2508	0	142
107	2906	0	142
107	3154	0	142
107	3648	0	142
107	3666	0	142
107	3760	0	142
107	3896	0	142
107	3962	0	142
107	4742	0	142
107	5066	0	142
107	5320	0	142
107	5550	0	142
107	5694	0	142
107	5938	0	142
107	6136	0	142
107	6290	0	142
107	6550	0	142
107	6738	0	142
107	6870	0	142
107	6902	0	142
107	6918	0	142
107	7072	0	142
107	7114	0	142
107	7910	0	142
107	8062	0	142
107	8830	0	143
107	8852	0	143
108	746	0	128
108	876	0	130
108	972	0	131
108	1640	0	133
108	1658	0	139
108	1986	0	142
108	2140	0	142
108	2614	0	142
108	2664	0	142
108	2674	0	142
108	3120	0	142
108	3188	0	142
108	4278	0	142
108	4864	0	142
108	5294	0	142
108	5440	0	142
108	5532	0	142
108	6772	0	142
108	7984	0	142
108	8298	0	142
109	762	0	128
109	1352	0	133
109	1638	0	133
109	1648	0	134
109	1896	0	141
109	2240	0	142
109	2330	0	142
109	2678	0	142
109	2784	0	142
109	2800	0	142
109	2822	0	142
109	3184	0	142
109	4294	0	142
109	4806	0	142
109	5258	0	142
109	5386	0	142
109	5442	0	142
109	5496	0	142
109	6694	0	142
109	7042	0	142
109	7676	0	142
109	7970	0	142
109	8252	0	142
109	8296	0	142
109	8552	0	142
109	8676	0	143
109	8842	0	143
109	9048	0	143
110	814	0	130
110	826	0	130
110	6108	0	142
110	6964	0	142
110	7392	0	142
110	7422	0	142
110	7476	0	142
110	8360	0	142
111	832	0	130
111	1018	0	132
111	1038	0	132
111	1208	0	132
111	1258	0	132
111	1424	0	133
111	1738	0	141
111	1928	0	141
111	3474	0	142
111	5646	0	142
111	6368	0	142
111	7198	0	142
111	7462	0	142
111	7870	0	142
111	8228	0	142
112	874	0	130
112	974	0	131
112	1984	0	142
112	2086	0	142
112	2640	0	142
112	3008	0	142
112	3118	0	142
112	3520	0	142
112	3536	0	142
112	4138	0	142
112	4494	0	142
112	4522	0	142
112	4860	0	142
112	4960	0	142
112	5178	0	142
112	5292	0	142
112	5492	0	142
112	6162	0	142
112	6496	0	142
112	6668	0	142
112	7046	0	142
112	7096	0	142
112	8172	0	142
112	8208	0	142
112	8258	0	142
112	8544	0	142
113	964	0	131
113	1992	0	142
113	2242	0	142
113	2328	0	142
113	2780	0	142
113	3374	0	142
113	3566	0	142
113	3860	0	142
113	4856	0	142
113	4934	0	142
113	5196	0	142
113	5968	0	142
113	6780	0	142
113	7980	0	142
113	8268	0	142
113	8542	0	142
114	966	0	131
114	1120	0	132
114	1650	0	135
114	2004	0	142
114	2234	0	142
114	2324	0	142
114	2616	0	142
114	2650	0	142
114	3000	0	142
114	3186	0	142
114	3378	0	142
114	3384	0	142
114	3522	0	142
114	3532	0	142
114	4022	0	142
114	4524	0	142
114	4816	0	142
114	5198	0	142
114	7614	0	142
114	7976	0	142
114	8174	0	142
114	8206	0	142
114	8300	0	142
115	968	0	131
115	2136	0	142
115	2142	0	142
115	2236	0	142
115	2652	0	142
115	2662	0	142
115	2944	0	142
115	2948	0	142
115	2992	0	142
115	2996	0	142
115	3190	0	142
115	3376	0	142
115	3392	0	142
115	3622	0	142
115	3858	0	142
115	4530	0	142
115	4618	0	142
115	4814	0	142
115	4936	0	142
115	5194	0	142
115	5356	0	142
115	6150	0	142
115	6584	0	142
115	6804	0	142
115	6810	0	142
115	6886	0	142
115	7094	0	142
115	7826	0	142
115	7992	0	142
115	8110	0	142
115	8114	0	142
115	8266	0	142
115	8840	0	143
116	1190	0	132
116	2030	0	142
116	2220	0	142
116	2634	0	142
116	2702	0	142
116	3034	0	142
116	3336	0	142
116	3412	0	142
116	3712	0	142
116	3912	0	142
116	4108	0	142
116	4216	0	142
116	4230	0	142
116	5306	0	142
116	6436	0	142
116	6458	0	142
116	6640	0	142
116	6652	0	142
116	7256	0	142
116	7762	0	142
116	7778	0	142
116	7914	0	142
116	8158	0	142
116	8236	0	142
116	8502	0	142
116	8650	0	143
116	8668	0	143
116	9010	0	143
117	1296	0	132
117	1304	0	132
117	2212	0	142
117	2704	0	142
117	3026	0	142
117	3030	0	142
117	3106	0	142
117	4034	0	142
117	4102	0	142
117	4106	0	142
117	4498	0	142
117	4662	0	142
117	5300	0	142
117	8670	0	143
117	8864	0	143
117	8932	0	143
117	8944	0	143
118	1440	0	133
118	5094	0	142
118	6972	0	142
118	6976	0	142
118	7368	0	142
118	7372	0	142
118	7412	0	142
118	7424	0	142
118	7472	0	142
118	7480	0	142
118	8362	0	142
119	1742	0	141
119	1750	0	141
119	4574	0	142
119	7426	0	142
119	7436	0	142
119	7440	0	142
119	7470	0	142
119	8394	0	142
120	1990	0	142
120	2250	0	142
120	2322	0	142
120	2326	0	142
120	2654	0	142
120	3564	0	142
120	4932	0	142
120	6782	0	142
120	8320	0	142
121	2252	0	142
121	2258	0	142
121	2276	0	142
121	2312	0	142
121	2316	0	142
121	2320	0	142
121	4930	0	142
122	2254	0	142
122	2260	0	142
122	2274	0	142
122	2290	0	142
122	2308	0	142
122	2314	0	142
122	4922	0	142
122	4926	0	142
123	2256	0	142
123	2262	0	142
123	2310	0	142
123	2318	0	142
123	4924	0	142
123	4928	0	142
124	2264	0	142
124	2272	0	142
124	2278	0	142
124	2286	0	142
124	2292	0	142
124	2298	0	142
124	2306	0	142
125	2266	0	142
125	4910	0	142
125	4914	0	142
125	4920	0	142
126	2268	0	142
126	2282	0	142
126	2296	0	142
126	2300	0	142
126	2304	0	142
126	4918	0	142
127	2270	0	142
127	2280	0	142
127	2302	0	142
128	2284	0	142
128	2288	0	142
128	2294	0	142
128	4912	0	142
128	4916	0	142
129	2484	0	142
129	4446	0	142
129	6120	0	142
130	2860	0	142
130	2876	0	142
130	6946	0	142
130	7310	0	142
130	8358	0	142
131	3028	0	142
131	3064	0	142
131	3102	0	142
131	3488	0	142
131	3798	0	142
131	4688	0	142
131	7670	0	142
131	7840	0	142
131	8946	0	143
132	3060	0	142
132	3070	0	142
132	3090	0	142
132	3104	0	142
132	3494	0	142
132	3806	0	142
132	4664	0	142
132	4680	0	142
132	4710	0	142
132	7666	0	142
132	7726	0	142
132	7842	0	142
132	8942	0	143
133	3062	0	142
133	3074	0	142
133	3082	0	142
133	3088	0	142
133	4700	0	142
133	4704	0	142
133	4708	0	142
133	7668	0	142
133	7672	0	142
134	3066	0	142
134	3802	0	142
134	4670	0	142
134	4692	0	142
134	4706	0	142
134	7844	0	142
134	8934	0	143
135	3068	0	142
135	3072	0	142
135	3078	0	142
135	3094	0	142
135	3098	0	142
135	4672	0	142
135	4676	0	142
135	4684	0	142
135	8936	0	143
136	3076	0	142
136	3080	0	142
136	3086	0	142
136	4668	0	142
136	4678	0	142
136	4698	0	142
136	8940	0	143
137	3084	0	142
137	3804	0	142
137	4696	0	142
137	8938	0	143
138	3092	0	142
138	3096	0	142
138	3100	0	142
138	4682	0	142
138	4686	0	142
138	4690	0	142
138	4694	0	142
138	4702	0	142
139	3328	0	142
139	3714	0	142
139	4220	0	142
139	5848	0	142
139	6418	0	142
139	6438	0	142
139	6636	0	142
139	6644	0	142
139	8714	0	143
139	8902	0	143
140	3490	0	142
140	3796	0	142
140	4666	0	142
140	4674	0	142
140	7662	0	142
140	7674	0	142
140	7728	0	142
140	8948	0	143

