file 57145 1757087686                                           
version 3
run Showcase-20-20250905-18:54:34-31508
attr configname Showcase
attr datetime 20250905-18:54:34
attr datetimef 20250905-185434
attr experiment Showcase
attr inifile omnetpp.ini
attr iterationvars ""
attr iterationvarsd ""
attr iterationvarsf ""
attr measurement ""
attr network TaxiNetwork
attr processid 31508
attr repetition 20
attr replication #20
attr resultdir results
attr runnumber 20
attr seedset 20
config network TaxiNetwork
config seed-set 20
config num-rngs 1
config sim-time-limit 10s
config repeat 500
config *.numWalkers 1
config *.enableDuplication true
config *.rc 700
config **.node[0].xCor 2933
config **.node[0].yCor 2747
config **.node[1].xCor 2919
config **.node[1].yCor 2817
config **.node[2].xCor 2910
config **.node[2].yCor 2861
config **.node[3].xCor 2429
config **.node[3].yCor 2851
config **.node[4].xCor 2908
config **.node[4].yCor 2714
config **.node[5].xCor 2606
config **.node[5].yCor 2722
config **.node[6].xCor 2575
config **.node[6].yCor 2753
config **.node[7].xCor 2654
config **.node[7].yCor 2513
config **.node[8].xCor 2773
config **.node[8].yCor 2580
config **.node[9].xCor 3043
config **.node[9].yCor 2780
config **.node[10].xCor 3020
config **.node[10].yCor 2813
config **.node[11].xCor 2599
config **.node[11].yCor 2300
config **.node[12].xCor 2917
config **.node[12].yCor 2698
config **.node[13].xCor 2625
config **.node[13].yCor 2641
config **.node[14].xCor 2604
config **.node[14].yCor 2790
config **.node[15].xCor 2786
config **.node[15].yCor 3082
config **.node[16].xCor 2603
config **.node[16].yCor 2802
config **.node[17].xCor 2637
config **.node[17].yCor 2869
config **.node[18].xCor 2675
config **.node[18].yCor 2955
config **.node[19].xCor 2845
config **.node[19].yCor 2937
config **.node[20].xCor 2860
config **.node[20].yCor 2888
config **.node[21].xCor 2843
config **.node[21].yCor 4158
config **.node[22].xCor 2852
config **.node[22].yCor 4017
config **.node[23].xCor 2892
config **.node[23].yCor 4961
config **.node[24].xCor 2313
config **.node[24].yCor 3993
config **.node[25].xCor 2891
config **.node[25].yCor 4959
config **.node[26].xCor 2370
config **.node[26].yCor 4050
config **.node[27].xCor 2788
config **.node[27].yCor 3958
config **.node[28].xCor 2819
config **.node[28].yCor 4428
config **.node[29].xCor 2790
config **.node[29].yCor 3761
config **.node[30].xCor 2809
config **.node[30].yCor 2908
config **.node[31].xCor 2919
config **.node[31].yCor 3575
config **.node[32].xCor 2946
config **.node[32].yCor 3466
config **.node[33].xCor 2911
config **.node[33].yCor 3453
config **.node[34].xCor 2370
config **.node[34].yCor 3656
config **.node[35].xCor 2438
config **.node[35].yCor 3738
config **.node[36].xCor 2737
config **.node[36].yCor 3570
config **.node[37].xCor 2921
config **.node[37].yCor 3698
config **.node[38].xCor 2907
config **.node[38].yCor 5197
config **.node[39].xCor 2860
config **.node[39].yCor 3852
config **.node[40].xCor 2927
config **.node[40].yCor 3684
config **.node[41].xCor 3023
config **.node[41].yCor 5313
config **.node[42].xCor 3220
config **.node[42].yCor 5811
config **.node[43].xCor 3432
config **.node[43].yCor 5715
config **.node[44].xCor 2754
config **.node[44].yCor 2463
config **.node[45].xCor 2646
config **.node[45].yCor 2673
config **.node[46].xCor 3051
config **.node[46].yCor 2792
config **.node[47].xCor 1666
config **.node[47].yCor 3697
config **.node[48].xCor 1662
config **.node[48].yCor 3694
config **.node[49].xCor 1664
config **.node[49].yCor 3667
config **.node[50].xCor 1660
config **.node[50].yCor 3664
config **.node[51].xCor 1710
config **.node[51].yCor 3573
config **.node[52].xCor 2082
config **.node[52].yCor 2650
config **.node[53].xCor 2086
config **.node[53].yCor 2657
config **.node[54].xCor 2257
config **.node[54].yCor 3232
config **.node[55].xCor 2258
config **.node[55].yCor 3225
config **.node[56].xCor 1926
config **.node[56].yCor 2570
config **.node[57].xCor 1926
config **.node[57].yCor 2576
config **.node[58].xCor 2104
config **.node[58].yCor 1758
config **.node[59].xCor 1957
config **.node[59].yCor 1826
config **.node[60].xCor 3473
config **.node[60].yCor 1523
config **.node[61].xCor 3335
config **.node[61].yCor 1726
config **.node[62].xCor 3478
config **.node[62].yCor 1517
config **.node[63].xCor 3386
config **.node[63].yCor 2119
config **.node[64].xCor 3474
config **.node[64].yCor 1762
config **.node[65].xCor 3797
config **.node[65].yCor 2099
config **.node[66].xCor 3642
config **.node[66].yCor 2136
config **.node[67].xCor 3481
config **.node[67].yCor 2334
config **.node[68].xCor 3088
config **.node[68].yCor 1505
config **.node[69].xCor 3037
config **.node[69].yCor 1693
config **.node[70].xCor 3026
config **.node[70].yCor 1700
config **.node[71].xCor 3019
config **.node[71].yCor 669
config **.node[72].xCor 3513
config **.node[72].yCor 1358
config **.node[73].xCor 3545
config **.node[73].yCor 1230
config **.node[74].xCor 4228
config **.node[74].yCor 4220
config **.node[75].xCor 3379
config **.node[75].yCor 1207
config **.node[76].xCor 3596
config **.node[76].yCor 963
config **.node[77].xCor 3637
config **.node[77].yCor 1188
config **.node[78].xCor 3759
config **.node[78].yCor 1030
config **.node[79].xCor 2918
config **.node[79].yCor 1455
config **.node[80].xCor 2711
config **.node[80].yCor 1297
config **.node[81].xCor 439
config **.node[81].yCor 1623
config **.node[82].xCor 2857
config **.node[82].yCor 3581
config **.node[83].xCor 2858
config **.node[83].yCor 3584
config **.node[84].xCor 2999
config **.node[84].yCor 2636
config **.node[85].xCor 2905
config **.node[85].yCor 2778
config **.node[86].xCor 2653
config **.node[86].yCor 2845
config **.node[87].xCor 2864
config **.node[87].yCor 2836
config **.node[88].xCor 2426
config **.node[88].yCor 2892
config **.node[89].xCor 2964
config **.node[89].yCor 2804
config **.node[90].xCor 2586
config **.node[90].yCor 3135
config **.node[91].xCor 2864
config **.node[91].yCor 2980
config **.node[92].xCor 2527
config **.node[92].yCor 3219
config **.node[93].xCor 2863
config **.node[93].yCor 3142
config **.node[94].xCor 2485
config **.node[94].yCor 3269
config **.node[95].xCor 2653
config **.node[95].yCor 1065
config **.node[96].xCor 4062
config **.node[96].yCor 400
config **.node[97].xCor 5762
config **.node[97].yCor 3023
config **.node[98].xCor 1414
config **.node[98].yCor 3461
config **.node[99].xCor 2911
config **.node[99].yCor 1737
config **.node[100].xCor 2595
config **.node[100].yCor 2299
config **.node[101].xCor 2702
config **.node[101].yCor 3419
config **.node[102].xCor 2813
config **.node[102].yCor 3307
config **.node[103].xCor 2638
config **.node[103].yCor 2258
config **.node[104].xCor 2590
config **.node[104].yCor 3125
config **.node[105].xCor 1856
config **.node[105].yCor 2990
config **.node[106].xCor 1894
config **.node[106].yCor 2239
config **.node[107].xCor 383
config **.node[107].yCor 1251
config **.node[108].xCor 3447
config **.node[108].yCor 5489
config **.node[109].xCor 3450
config **.node[109].yCor 5697
config **.node[110].xCor 2719
config **.node[110].yCor 1920
config **.node[111].xCor 2085
config **.node[111].yCor 2389
config **.node[112].xCor 1910
config **.node[112].yCor 2548
config **.node[113].xCor 2069
config **.node[113].yCor 2050
config **.node[114].xCor 2184
config **.node[114].yCor 2209
config **.node[115].xCor 2278
config **.node[115].yCor 2390
config **.node[116].xCor 2249
config **.node[116].yCor 2299
config **.node[117].xCor 2356
config **.node[117].yCor 2303
config **.node[118].xCor 2192
config **.node[118].yCor 2475
config **.node[119].xCor 1720
config **.node[119].yCor 2911
config **.node[120].xCor 2400
config **.node[120].yCor 2887
config **.node[121].xCor 3344
config **.node[121].yCor 1890
config **.node[122].xCor 3136
config **.node[122].yCor 2418
config **.node[123].xCor 3243
config **.node[123].yCor 2525
config **.node[124].xCor 2396
config **.node[124].yCor 1267
config **.node[125].xCor 467
config **.node[125].yCor 1875
config **.node[126].xCor 3506
config **.node[126].yCor 1221
config **.node[127].xCor 1034
config **.node[127].yCor 1474
config **.node[128].xCor 2908
config **.node[128].yCor 1784
config **.node[129].xCor 2876
config **.node[129].yCor 1761
config **.node[130].xCor 2849
config **.node[130].yCor 1795
config **.node[131].xCor 3029
config **.node[131].yCor 1859
config **.node[132].xCor 2924
config **.node[132].yCor 1848
config **.node[133].xCor 3493
config **.node[133].yCor 1559
config **.node[134].xCor 2760
config **.node[134].yCor 1761
config **.node[135].xCor 1644
config **.node[135].yCor 3755
config **.node[136].xCor 1463
config **.node[136].yCor 3432
config **.node[137].xCor 2595
config **.node[137].yCor 2849
config **.node[138].xCor 2581
config **.node[138].yCor 2867
config **.node[139].xCor 2524
config **.node[139].yCor 2911
config **.node[140].xCor 2570
config **.node[140].yCor 2924
config **.node[141].xCor 2676
config **.node[141].yCor 2890
config **.node[142].xCor 2666
config **.node[142].yCor 2876
config **.node[143].xCor 3735
config **.node[143].yCor 1726
config **.node[144].xCor 1637
config **.node[144].yCor 3438

vector 0 TaxiNetwork.node[100] visitedPerTimestep ETV
vector 1 TaxiNetwork.node[84] visitedPerTimestep ETV
vector 2 TaxiNetwork.node[15] visitedPerTimestep ETV
vector 3 TaxiNetwork.node[55] visitedPerTimestep ETV
vector 4 TaxiNetwork.node[93] visitedPerTimestep ETV
vector 5 TaxiNetwork.node[37] visitedPerTimestep ETV
vector 6 TaxiNetwork.node[33] visitedPerTimestep ETV
vector 7 TaxiNetwork.node[40] visitedPerTimestep ETV
vector 8 TaxiNetwork.node[35] visitedPerTimestep ETV
vector 9 TaxiNetwork.node[102] visitedPerTimestep ETV
vector 10 TaxiNetwork.node[9] visitedPerTimestep ETV
vector 11 TaxiNetwork.node[91] visitedPerTimestep ETV
vector 12 TaxiNetwork.node[83] visitedPerTimestep ETV
vector 13 TaxiNetwork.node[74] visitedPerTimestep ETV
vector 14 TaxiNetwork.node[31] visitedPerTimestep ETV
vector 15 TaxiNetwork.node[104] visitedPerTimestep ETV
vector 16 TaxiNetwork.node[92] visitedPerTimestep ETV
vector 17 TaxiNetwork.node[18] visitedPerTimestep ETV
vector 18 TaxiNetwork.node[88] visitedPerTimestep ETV
vector 19 TaxiNetwork.node[7] visitedPerTimestep ETV
vector 20 TaxiNetwork.node[53] visitedPerTimestep ETV
vector 21 TaxiNetwork.node[13] visitedPerTimestep ETV
vector 22 TaxiNetwork.node[54] visitedPerTimestep ETV
vector 23 TaxiNetwork.node[34] visitedPerTimestep ETV
vector 24 TaxiNetwork.node[24] visitedPerTimestep ETV
vector 25 TaxiNetwork.node[39] visitedPerTimestep ETV
vector 26 TaxiNetwork.node[46] visitedPerTimestep ETV
vector 27 TaxiNetwork.node[139] visitedPerTimestep ETV
vector 28 TaxiNetwork.node[56] visitedPerTimestep ETV
vector 29 TaxiNetwork.node[112] visitedPerTimestep ETV
vector 30 TaxiNetwork.node[114] visitedPerTimestep ETV
vector 31 TaxiNetwork.node[11] visitedPerTimestep ETV
vector 32 TaxiNetwork.node[20] visitedPerTimestep ETV
vector 33 TaxiNetwork.node[3] visitedPerTimestep ETV
vector 34 TaxiNetwork.node[14] visitedPerTimestep ETV
vector 35 TaxiNetwork.node[140] visitedPerTimestep ETV
vector 36 TaxiNetwork.node[17] visitedPerTimestep ETV
vector 37 TaxiNetwork.node[19] visitedPerTimestep ETV
vector 38 TaxiNetwork.node[101] visitedPerTimestep ETV
vector 39 TaxiNetwork.node[82] visitedPerTimestep ETV
vector 40 TaxiNetwork.node[52] visitedPerTimestep ETV
vector 41 TaxiNetwork.node[86] visitedPerTimestep ETV
vector 42 TaxiNetwork.node[105] visitedPerTimestep ETV
vector 43 TaxiNetwork.node[119] visitedPerTimestep ETV
vector 44 TaxiNetwork.node[111] visitedPerTimestep ETV
vector 45 TaxiNetwork.node[137] visitedPerTimestep ETV
vector 46 TaxiNetwork.node[6] visitedPerTimestep ETV
vector 47 TaxiNetwork.node[138] visitedPerTimestep ETV
vector 48 TaxiNetwork.node[32] visitedPerTimestep ETV
vector 49 TaxiNetwork.node[44] visitedPerTimestep ETV
vector 50 TaxiNetwork.node[8] visitedPerTimestep ETV
vector 51 TaxiNetwork.node[36] visitedPerTimestep ETV
vector 52 TaxiNetwork.node[134] visitedPerTimestep ETV
vector 53 TaxiNetwork.node[129] visitedPerTimestep ETV
vector 54 TaxiNetwork.node[70] visitedPerTimestep ETV
vector 55 TaxiNetwork.node[130] visitedPerTimestep ETV
vector 56 TaxiNetwork.node[79] visitedPerTimestep ETV
vector 57 TaxiNetwork.node[131] visitedPerTimestep ETV
vector 58 TaxiNetwork.node[69] visitedPerTimestep ETV
vector 59 TaxiNetwork.node[73] visitedPerTimestep ETV
vector 60 TaxiNetwork.node[72] visitedPerTimestep ETV
vector 61 TaxiNetwork.node[133] visitedPerTimestep ETV
vector 62 TaxiNetwork.node[126] visitedPerTimestep ETV
vector 63 TaxiNetwork.node[143] visitedPerTimestep ETV
vector 64 TaxiNetwork.node[132] visitedPerTimestep ETV
vector 65 TaxiNetwork.node[51] visitedPerTimestep ETV
vector 66 TaxiNetwork.node[89] visitedPerTimestep ETV
vector 67 TaxiNetwork.node[22] visitedPerTimestep ETV
vector 68 TaxiNetwork.node[103] visitedPerTimestep ETV
vector 69 TaxiNetwork.node[10] visitedPerTimestep ETV
vector 70 TaxiNetwork.node[142] visitedPerTimestep ETV
vector 71 TaxiNetwork.node[117] visitedPerTimestep ETV
vector 72 TaxiNetwork.node[2] visitedPerTimestep ETV
vector 73 TaxiNetwork.node[16] visitedPerTimestep ETV
vector 74 TaxiNetwork.node[1] visitedPerTimestep ETV
vector 75 TaxiNetwork.node[115] visitedPerTimestep ETV
vector 76 TaxiNetwork.node[5] visitedPerTimestep ETV
vector 77 TaxiNetwork.node[0] visitedPerTimestep ETV
vector 78 TaxiNetwork.node[45] visitedPerTimestep ETV
vector 79 TaxiNetwork.node[4] visitedPerTimestep ETV
vector 80 TaxiNetwork.node[123] visitedPerTimestep ETV
vector 81 TaxiNetwork.node[12] visitedPerTimestep ETV
vector 82 TaxiNetwork.node[122] visitedPerTimestep ETV
vector 83 TaxiNetwork.node[66] visitedPerTimestep ETV
vector 84 TaxiNetwork.node[61] visitedPerTimestep ETV
vector 85 TaxiNetwork.node[63] visitedPerTimestep ETV
vector 86 TaxiNetwork.node[128] visitedPerTimestep ETV
vector 87 TaxiNetwork.node[30] visitedPerTimestep ETV
vector 88 TaxiNetwork.node[67] visitedPerTimestep ETV
vector 89 TaxiNetwork.node[90] visitedPerTimestep ETV
vector 90 TaxiNetwork.node[120] visitedPerTimestep ETV
vector 91 TaxiNetwork.node[116] visitedPerTimestep ETV
vector 92 TaxiNetwork.node[85] visitedPerTimestep ETV
vector 93 TaxiNetwork.node[29] visitedPerTimestep ETV
vector 94 TaxiNetwork.node[87] visitedPerTimestep ETV
vector 95 TaxiNetwork.node[26] visitedPerTimestep ETV
vector 96 TaxiNetwork.node[27] visitedPerTimestep ETV
vector 97 TaxiNetwork.node[141] visitedPerTimestep ETV
vector 98 TaxiNetwork.node[94] visitedPerTimestep ETV
vector 99 TaxiNetwork.node[113] visitedPerTimestep ETV
vector 100 TaxiNetwork.node[59] visitedPerTimestep ETV
vector 101 TaxiNetwork.node[57] visitedPerTimestep ETV
vector 102 TaxiNetwork.node[136] visitedPerTimestep ETV
vector 103 TaxiNetwork.node[98] visitedPerTimestep ETV
vector 104 TaxiNetwork.node[135] visitedPerTimestep ETV
vector 105 TaxiNetwork.node[47] visitedPerTimestep ETV
vector 106 TaxiNetwork.node[99] visitedPerTimestep ETV
vector 107 TaxiNetwork.node[64] visitedPerTimestep ETV
vector 108 TaxiNetwork.node[121] visitedPerTimestep ETV
vector 109 TaxiNetwork.node[110] visitedPerTimestep ETV
vector 110 TaxiNetwork.node[21] visitedPerTimestep ETV
vector 111 TaxiNetwork.node[118] visitedPerTimestep ETV
vector 112 TaxiNetwork.node[106] visitedPerTimestep ETV
vector 113 TaxiNetwork.node[68] visitedPerTimestep ETV
vector 114 TaxiNetwork.node[80] visitedPerTimestep ETV
vector 115 TaxiNetwork.node[62] visitedPerTimestep ETV
vector 116 TaxiNetwork.node[60] visitedPerTimestep ETV
vector 117 TaxiNetwork.node[28] visitedPerTimestep ETV
vector 118 TaxiNetwork.node[25] visitedPerTimestep ETV
vector 119 TaxiNetwork.node[38] visitedPerTimestep ETV
vector 120 TaxiNetwork.node[23] visitedPerTimestep ETV
vector 121 TaxiNetwork.node[75] visitedPerTimestep ETV
vector 122 TaxiNetwork.node[78] visitedPerTimestep ETV
vector 123 TaxiNetwork.node[144] visitedPerTimestep ETV
vector 124 TaxiNetwork.node[49] visitedPerTimestep ETV
vector 125 TaxiNetwork.node[127] visitedPerTimestep ETV
vector 126 TaxiNetwork.node[107] visitedPerTimestep ETV
vector 127 TaxiNetwork.node[81] visitedPerTimestep ETV
vector 128 TaxiNetwork.node[125] visitedPerTimestep ETV
vector 129 TaxiNetwork.node[65] visitedPerTimestep ETV
vector 130 TaxiNetwork.node[48] visitedPerTimestep ETV
vector 131 TaxiNetwork.node[50] visitedPerTimestep ETV
vector 132 TaxiNetwork.node[124] visitedPerTimestep ETV
vector 133 TaxiNetwork.node[58] visitedPerTimestep ETV
vector 134 TaxiNetwork.node[77] visitedPerTimestep ETV
vector 135 TaxiNetwork.node[97] visitedPerTimestep ETV
vector 136 TaxiNetwork.node[95] visitedPerTimestep ETV
0	16530 429 1 6608 0 0 35 1 144 4238 556530
1	16959 386 2 6756 0 0 31 2 144 3920 519354
2	17345 442 3 6624 0 0 36 3 144 4376 573728
3	17787 390 4 6728 0 0 31 4 144 4039 551129
4	18177 463 5 6856 0 0 38 5 144 4499 575659
5	18640 182 6 6176 0 0 15 6 144 1766 235428
6	18822 418 7 6204 0 0 34 7 144 4193 555097
7	19240 228 8 6852 0 0 19 8 144 2092 270272
8	19468 242 9 6200 0 0 20 9 144 2283 298813
9	19710 418 10 6276 0 0 34 10 144 4070 525486
10	20128 501 11 6644 0 0 37 11 144 4768 639206
11	20629 540 12 6988 0 0 40 12 144 5091 685045
12	21169 216 13 6264 0 0 16 13 144 1995 265177
13	21385 148 14 6268 0 0 11 14 144 1368 185298
14	21533 244 16 6172 0 0 18 15 144 2283 312971
15	21777 478 17 6632 0 0 36 16 144 4412 578240
16	22255 427 19 6564 0 0 32 17 144 3936 515846
17	22682 731 20 6892 0 0 54 18 144 6887 927137
18	23413 578 21 6960 0 0 43 19 144 5383 714645
19	23991 482 26 6944 0 0 36 20 144 4523 591211
20	24473 358 28 5660 0 0 26 21 144 3465 476601
21	24831 480 29 6932 0 0 36 22 144 4427 583385
22	25311 345 30 6888 0 0 26 23 144 3165 413273
23	25656 273 31 5720 0 0 20 24 144 2582 355260
24	25929 93 33 6260 0 0 7 25 144 842 112596
25	26022 160 34 6148 0 0 12 26 144 1455 193983
26	26182 363 38 6860 0 0 27 27 144 3408 450228
27	26545 546 39 6968 0 0 40 28 144 5284 718820
28	27091 213 40 6672 0 0 16 29 144 1991 260813
29	27304 160 41 6828 0 0 12 30 144 1447 189477
30	27464 163 42 6700 0 0 12 31 144 1518 203492
31	27627 500 44 6752 0 0 37 32 144 4743 635339
32	28127 397 45 6840 0 0 29 33 144 3862 530142
33	28524 597 46 6832 0 0 44 34 144 5740 770860
34	29121 450 47 6896 0 0 33 35 144 4308 583786
35	29571 480 49 6956 0 0 36 36 144 4512 587092
36	30051 547 51 6776 0 0 40 37 144 5362 732422
37	30598 371 52 6640 0 0 28 38 144 3419 439739
38	30969 474 57 6772 0 0 35 39 144 4544 607730
39	31443 294 58 6980 0 0 22 40 144 2750 360912
40	31737 351 62 6356 0 0 26 41 144 3341 446523
41	32088 488 63 6880 0 0 36 42 144 4702 628100
42	32576 230 65 5656 0 0 17 43 144 2164 285810
43	32806 133 66 6816 0 0 10 44 144 1205 157043
44	32939 380 67 6784 0 0 28 45 144 3591 474709
45	33319 572 68 6732 0 0 43 46 144 5306 675628
46	33891 535 71 6792 0 0 40 47 144 5008 649984
47	34426 336 73 6764 0 0 25 48 144 3240 432800
48	34762 275 75 6984 0 0 20 49 144 2666 363888
49	35037 562 77 6484 0 0 42 50 144 5256 684256
50	35599 488 79 6532 0 0 36 51 144 4668 621246
51	36087 245 82 6576 0 0 18 52 144 2352 315294
52	36332 216 90 6452 0 0 16 53 144 2024 273402
53	36548 162 91 6472 0 0 12 54 144 1538 204824
54	36710 285 92 5200 0 0 21 55 144 2714 362656
55	36995 420 93 6464 0 0 31 56 144 4146 563220
56	37415 268 94 6080 0 0 20 57 144 2542 335212
57	37683 271 95 6448 0 0 20 58 144 2646 360224
58	37954 231 97 6120 0 0 17 59 144 2248 304766
59	38185 163 98 6072 0 0 12 60 144 1564 211400
60	38348 162 99 5312 0 0 12 61 144 1536 207362
61	38510 148 100 6084 0 0 11 62 144 1432 192282
62	38658 136 101 6116 0 0 10 63 144 1311 177707
63	38794 136 102 6028 0 0 10 64 144 1287 173353
64	38930 340 107 6480 0 0 25 65 144 3331 450925
65	39270 242 112 5652 0 0 18 66 144 2253 288391
66	39512 359 118 6760 0 0 27 67 144 3278 412858
67	39871 204 120 5724 0 0 15 68 144 1941 257829
68	40075 517 125 6588 0 0 38 69 144 5022 673808
69	40592 325 126 6492 0 0 24 70 144 3114 413832
70	40917 556 127 6352 0 0 41 71 144 5330 709586
71	41473 464 128 6684 0 0 34 72 144 4551 617831
72	41937 419 130 6924 0 0 31 73 144 4059 543843
73	42356 421 140 6904 0 0 31 74 144 4017 529397
74	42777 402 143 6284 0 0 30 75 144 3855 505855
75	43179 418 147 6668 0 0 31 76 144 4039 534773
76	43597 422 149 6872 0 0 31 77 144 4095 549743
77	44019 364 150 6568 0 0 27 78 144 3464 453918
78	44383 613 151 6940 0 0 45 79 144 5981 805677
79	44996 488 153 6952 0 0 36 80 144 4727 630613
80	45484 271 154 6408 0 0 20 81 144 2571 335479
81	45755 515 161 6972 0 0 38 82 144 4985 665909
82	46270 408 162 6128 0 0 30 83 144 4011 544663
83	46678 94 163 6104 0 0 7 84 144 913 122065
84	46772 189 165 5180 0 0 14 85 144 1825 241849
85	46961 151 166 5220 0 0 11 86 144 1476 200868
86	47112 275 168 6456 0 0 20 87 144 2738 378616
87	47387 700 172 6948 0 0 51 88 144 6939 951739
88	48087 202 174 6296 0 0 15 89 144 1953 257081
89	48289 532 180 6976 0 0 39 90 144 5175 695471
90	48821 487 181 6592 0 0 36 91 144 4762 638510
91	49308 255 188 6788 0 0 19 92 144 2417 313851
92	49563 301 204 6864 0 0 22 93 144 2932 395850
93	49864 189 214 5844 0 0 14 94 144 1823 241913
94	50053 601 228 6304 0 0 44 95 144 5947 809521
95	50654 81 233 3464 0 0 6 96 143 788 105078
96	50735 108 237 5716 0 0 8 97 144 1070 144870
97	50843 438 264 6992 0 0 32 98 145 4308 584784
98	51281 394 274 6556 0 0 29 99 144 3836 511282
99	51675 138 312 6428 0 0 10 100 144 1368 188880
100	51813 89 313 5504 0 0 6 101 144 807 109935
101	51902 295 317 6796 0 0 20 102 144 2730 374618
102	52197 194 319 2202 0 0 13 103 138 1739 233655
103	52391 148 321 6812 0 0 10 104 144 1347 182677
104	52539 119 322 5644 0 0 8 105 144 1066 143010
105	52658 163 324 1748 0 0 11 106 137 1456 193598
106	52821 246 333 6476 0 0 17 107 144 2270 304894
107	53067 206 339 6092 0 0 14 108 144 1909 262013
108	53273 413 340 6460 0 0 28 109 144 3861 534839
109	53686 309 344 6444 0 0 21 110 144 2851 389245
110	53995 131 360 6848 0 0 9 111 144 1225 167699
111	54126 279 426 6824 0 0 19 112 144 2562 347550
112	54405 163 455 6820 0 0 11 113 144 1535 215145
113	54568 340 495 6468 0 0 23 114 144 3180 441648
114	54908 207 496 5140 0 0 14 115 144 1926 265898
115	55115 206 498 5232 0 0 14 116 144 1928 266272
116	55321 265 584 6112 0 0 18 117 144 2470 340338
117	55586 43 609 1544 0 0 3 118 136 375 47061
118	55629 42 610 614 0 0 3 119 121 360 43202
119	55671 14 611 611 0 0 1 120 120 120 14400
120	55685 14 613 613 0 0 1 121 121 121 14641
121	55699 206 640 6060 0 0 14 122 144 1934 268068
122	55905 59 643 6068 0 0 4 123 144 553 76763
123	55964 87 700 1698 0 0 6 124 136 790 104118
124	56051 88 702 1750 0 0 6 125 137 800 106782
125	56139 162 767 5276 0 0 11 126 144 1526 212302
126	56301 74 770 5272 0 0 5 127 144 703 99073
127	56375 72 771 4684 0 0 5 128 144 674 91138
128	56447 43 772 5256 0 0 3 129 144 402 54018
129	56490 118 794 6108 0 0 8 130 144 1110 154238
130	56608 149 847 6808 0 0 10 131 144 1372 188378
131	56757 134 849 5640 0 0 9 132 144 1230 168178
132	56891 88 958 4696 0 0 6 133 144 828 114390
133	56979 90 1312 6424 0 0 6 134 144 847 119657
134	57069 30 1498 2840 0 0 2 136 143 279 38945
135	57099 15 1876 1876 0 0 1 138 138 138 19044
136	57114 30 3912 4636 0 0 2 144 144 288 41472

